version 2
run General-0-20201121-01:27:20-5576
attr configname General
attr datetime 20201121-01:27:20
attr experiment General
attr inifile omnetpp.ini
attr iterationvars ""
attr iterationvarsf ""
attr measurement ""
attr network Busoff_test1
attr processid 5576
attr repetition 0
attr replication #0
attr resultdir results
attr runnumber 0
attr seedset 0
param **.bandwidth 0.1Mbps
param **.bitStuffingPercentage 0
param **.version "\"2.0B\""
param Busoff_test1.Victim.sourceApp[0].idDataFrames "\"2\""
param Busoff_test1.Victim.sourceApp[0].periodicityDataFrames "\"0.700\""
param Busoff_test1.Victim.sourceApp[0].dataLengthDataFrames "\"1\""
param Busoff_test1.Victim.sourceApp[0].initialDataFrameOffset "\"0.700\""
param Busoff_test1.Adversary.sourceApp[0].idDataFrames "\"2\""
param Busoff_test1.Adversary.sourceApp[0].periodicityDataFrames "\"0.700\""
param Busoff_test1.Adversary.sourceApp[0].dataLengthDataFrames "\"0\""
param Busoff_test1.Adversary.sourceApp[0].initialDataFrameOffset "\"0.700\""
param Busoff_test1.Receiver.bufferIn[0].idIncomingFrames "\"2\""

vector 0 Busoff_test1.Victim.canClock clockDrift:vector ETV
attr interpolationmode linear
attr source clockDrift
attr title "clockDrift, vector"
attr unit s
vector 1 Busoff_test1.Adversary.canClock clockDrift:vector ETV
attr interpolationmode linear
attr source clockDrift
attr title "clockDrift, vector"
attr unit s
vector 2 Busoff_test1.Receiver.canClock clockDrift:vector ETV
attr interpolationmode linear
attr source clockDrift
attr title "clockDrift, vector"
attr unit s
vector 3 Busoff_test1.Victim.bufferOut rxPk:vector(packetBytes) ETV
attr interpolationmode none
attr source rxPk
attr title "RX Packets, vector(packetBytes)"
vector 4 Busoff_test1.Victim.bufferOut length:vector ETV
attr interpolationmode sample-hold
attr source length
attr title "Queue Length, vector"
attr unit packets
vector 5 Busoff_test1.Victim.bufferOut size:vector ETV
attr interpolationmode sample-hold
attr source size
attr title "Queue Size, vector"
attr unit B
vector 6 Busoff_test1.bus.canBusLogic arbitrationLength:vector ETV
attr interpolationmode sample-hold
attr source arbitrationLength
attr title "Arbitration Length, vector"
attr unit packets
vector 7 Busoff_test1.Adversary.bufferOut rxPk:vector(packetBytes) ETV
attr interpolationmode none
attr source rxPk
attr title "RX Packets, vector(packetBytes)"
vector 8 Busoff_test1.Adversary.bufferOut length:vector ETV
attr interpolationmode sample-hold
attr source length
attr title "Queue Length, vector"
attr unit packets
vector 9 Busoff_test1.Adversary.bufferOut size:vector ETV
attr interpolationmode sample-hold
attr source size
attr title "Queue Size, vector"
attr unit B
vector 10 Busoff_test1.Adversary.bufferOut txPk:vector(packetBytes) ETV
attr interpolationmode none
attr source txPk
attr title "TX Packets, vector(packetBytes)"
vector 11 Busoff_test1.Receiver.canNodePort.canPortInput rxDFLatency:vector ETV
attr interpolationmode linear
attr source timestampAge(rxDF)
attr title "End-to-end latency of data frames, vector"
attr unit s
vector 12 Busoff_test1.Receiver.canNodePort.canPortInput rxDFPayloadLatency:vector ETV
attr interpolationmode linear
attr source timestampAge(rxDFPayload)
attr title "End-to-end latency of data frame payload, vector"
attr unit s
vector 13 Busoff_test1.Receiver.bufferIn[0] rxPk:vector(packetBytes) ETV
attr interpolationmode none
attr source rxPk
attr title "RX Packets, vector(packetBytes)"
vector 14 Busoff_test1.Receiver.bufferIn[0] txPk:vector(packetBytes) ETV
attr interpolationmode none
attr source txPk
attr title "TX Packets, vector(packetBytes)"
vector 15 Busoff_test1.Receiver.sinkApp[0] rxDFLatency:vector ETV
attr interpolationmode linear
attr source timestampAge(rxDF)
attr title "End-to-end latency of data frames, vector"
attr unit s
vector 16 Busoff_test1.Receiver.sinkApp[0] rxDFPayloadLatency:vector ETV
attr interpolationmode linear
attr source timestampAge(rxDFPayload)
attr title "End-to-end latency of data frame payload, vector"
attr unit s
vector 17 Busoff_test1.Victim.bufferOut txPk:vector(packetBytes) ETV
attr interpolationmode none
attr source txPk
attr title "TX Packets, vector(packetBytes)"
0	0	0	0
0	1	0.7	0
0	86	1.4	0
0	123	2.1	0
0	160	2.8	0
0	197	3.5	0
0	234	4.2	0
0	271	4.9	0
0	308	5.6	0
0	345	6.3	0
0	382	7	0
0	419	7.7	0
0	456	8.4	0
0	493	9.1	0
0	530	9.8	0
0	567	10.5	0
0	604	11.2	0
0	641	11.9	0
0	678	12.6	0
1	0	0	0
1	2	0.7	0
1	87	1.4	0
1	124	2.1	0
1	161	2.8	0
1	198	3.5	0
1	235	4.2	0
1	272	4.9	0
1	309	5.6	0
1	346	6.3	0
1	383	7	0
1	420	7.7	0
1	457	8.4	0
1	494	9.1	0
1	531	9.8	0
1	568	10.5	0
1	605	11.2	0
1	642	11.9	0
1	679	12.6	0
2	0	0	0
3	3	0.7	10
3	3	0.7	10
3	5	0.70001	10
3	8	0.7006	10
3	11	0.70119	10
3	14	0.70178	10
3	17	0.70237	10
3	20	0.70296	10
3	23	0.70355	10
3	26	0.70414	10
3	29	0.70473	10
3	32	0.70532	10
3	35	0.70591	10
3	38	0.7065	10
3	41	0.70709	10
3	44	0.70768	10
3	47	0.70827	10
3	50	0.70886	10
3	65	0.71012	10
3	88	1.4	10
3	88	1.4	10
3	102	1.40068	10
3	125	2.1	10
3	125	2.1	10
3	139	2.10068	10
3	162	2.8	10
3	162	2.8	10
3	176	2.80068	10
3	199	3.5	10
3	199	3.5	10
3	213	3.50068	10
3	236	4.2	10
3	236	4.2	10
3	250	4.20068	10
3	273	4.9	10
3	273	4.9	10
3	287	4.90068	10
3	310	5.6	10
3	310	5.6	10
3	324	5.60068	10
3	347	6.3	10
3	347	6.3	10
3	361	6.30068	10
3	384	7	10
3	384	7	10
3	398	7.00068	10
3	421	7.7	10
3	421	7.7	10
3	435	7.70068	10
3	458	8.4	10
3	458	8.4	10
3	472	8.40068	10
3	495	9.1	10
3	495	9.1	10
3	509	9.10068	10
3	532	9.8	10
3	532	9.8	10
3	546	9.80068	10
3	569	10.5	10
3	569	10.5	10
3	583	10.50068	10
3	606	11.2	10
3	606	11.2	10
3	620	11.20068	10
3	643	11.9	10
3	643	11.9	10
3	657	11.90068	10
3	680	12.6	10
3	680	12.6	10
3	694	12.60068	10
4	3	0.7	1
4	82	0.71234	0
4	88	1.4	1
4	119	1.4029	0
4	125	2.1	1
4	156	2.1029	0
4	162	2.8	1
4	193	2.8029	0
4	199	3.5	1
4	230	3.5029	0
4	236	4.2	1
4	267	4.2029	0
4	273	4.9	1
4	304	4.9029	0
4	310	5.6	1
4	341	5.6029	0
4	347	6.3	1
4	378	6.3029	0
4	384	7	1
4	415	7.0029	0
4	421	7.7	1
4	452	7.7029	0
4	458	8.4	1
4	489	8.4029	0
4	495	9.1	1
4	526	9.1029	0
4	532	9.8	1
4	563	9.8029	0
4	569	10.5	1
4	600	10.5029	0
4	606	11.2	1
4	637	11.2029	0
4	643	11.9	1
4	674	11.9029	0
4	680	12.6	1
4	711	12.6029	0
5	3	0.7	10
5	82	0.71234	0
5	88	1.4	10
5	119	1.4029	0
5	125	2.1	10
5	156	2.1029	0
5	162	2.8	10
5	193	2.8029	0
5	199	3.5	10
5	230	3.5029	0
5	236	4.2	10
5	267	4.2029	0
5	273	4.9	10
5	304	4.9029	0
5	310	5.6	10
5	341	5.6029	0
5	347	6.3	10
5	378	6.3029	0
5	384	7	10
5	415	7.0029	0
5	421	7.7	10
5	452	7.7029	0
5	458	8.4	10
5	489	8.4029	0
5	495	9.1	10
5	526	9.1029	0
5	532	9.8	10
5	563	9.8029	0
5	569	10.5	10
5	600	10.5029	0
5	606	11.2	10
5	637	11.2029	0
5	643	11.9	10
5	674	11.9029	0
5	680	12.6	10
5	711	12.6029	0
6	3	0.7	1
6	4	0.7	2
6	6	0.70059	1
6	7	0.70059	2
6	9	0.70118	1
6	10	0.70118	2
6	12	0.70177	1
6	13	0.70177	2
6	15	0.70236	1
6	16	0.70236	2
6	18	0.70295	1
6	19	0.70295	2
6	21	0.70354	1
6	22	0.70354	2
6	24	0.70413	1
6	25	0.70413	2
6	27	0.70472	1
6	28	0.70472	2
6	30	0.70531	1
6	31	0.70531	2
6	33	0.7059	1
6	34	0.7059	2
6	36	0.70649	1
6	37	0.70649	2
6	39	0.70708	1
6	40	0.70708	2
6	42	0.70767	1
6	43	0.70767	2
6	45	0.70826	1
6	46	0.70826	2
6	48	0.70885	1
6	49	0.70885	2
6	51	0.70944	1
6	52	0.70944	2
6	65	0.71012	0
6	69	0.71158	1
6	82	0.71234	0
6	88	1.4	1
6	89	1.4	2
6	102	1.40068	0
6	106	1.40214	1
6	119	1.4029	0
6	125	2.1	1
6	126	2.1	2
6	139	2.10068	0
6	143	2.10214	1
6	156	2.1029	0
6	162	2.8	1
6	163	2.8	2
6	176	2.80068	0
6	180	2.80214	1
6	193	2.8029	0
6	199	3.5	1
6	200	3.5	2
6	213	3.50068	0
6	217	3.50214	1
6	230	3.5029	0
6	236	4.2	1
6	237	4.2	2
6	250	4.20068	0
6	254	4.20214	1
6	267	4.2029	0
6	273	4.9	1
6	274	4.9	2
6	287	4.90068	0
6	291	4.90214	1
6	304	4.9029	0
6	310	5.6	1
6	311	5.6	2
6	324	5.60068	0
6	328	5.60214	1
6	341	5.6029	0
6	347	6.3	1
6	348	6.3	2
6	361	6.30068	0
6	365	6.30214	1
6	378	6.3029	0
6	384	7	1
6	385	7	2
6	398	7.00068	0
6	402	7.00214	1
6	415	7.0029	0
6	421	7.7	1
6	422	7.7	2
6	435	7.70068	0
6	439	7.70214	1
6	452	7.7029	0
6	458	8.4	1
6	459	8.4	2
6	472	8.40068	0
6	476	8.40214	1
6	489	8.4029	0
6	495	9.1	1
6	496	9.1	2
6	509	9.10068	0
6	513	9.10214	1
6	526	9.1029	0
6	532	9.8	1
6	533	9.8	2
6	546	9.80068	0
6	550	9.80214	1
6	563	9.8029	0
6	569	10.5	1
6	570	10.5	2
6	583	10.50068	0
6	587	10.50214	1
6	600	10.5029	0
6	606	11.2	1
6	607	11.2	2
6	620	11.20068	0
6	624	11.20214	1
6	637	11.2029	0
6	643	11.9	1
6	644	11.9	2
6	657	11.90068	0
6	661	11.90214	1
6	674	11.9029	0
6	680	12.6	1
6	681	12.6	2
6	694	12.60068	0
6	698	12.60214	1
6	711	12.6029	0
7	4	0.7	9
7	4	0.7	9
7	5	0.70001	9
7	8	0.7006	9
7	11	0.70119	9
7	14	0.70178	9
7	17	0.70237	9
7	20	0.70296	9
7	23	0.70355	9
7	26	0.70414	9
7	29	0.70473	9
7	32	0.70532	9
7	35	0.70591	9
7	38	0.7065	9
7	41	0.70709	9
7	44	0.70768	9
7	47	0.70827	9
7	50	0.70886	9
7	89	1.4	9
7	89	1.4	9
7	126	2.1	9
7	126	2.1	9
7	163	2.8	9
7	163	2.8	9
7	200	3.5	9
7	200	3.5	9
7	237	4.2	9
7	237	4.2	9
7	274	4.9	9
7	274	4.9	9
7	311	5.6	9
7	311	5.6	9
7	348	6.3	9
7	348	6.3	9
7	385	7	9
7	385	7	9
7	422	7.7	9
7	422	7.7	9
7	459	8.4	9
7	459	8.4	9
7	496	9.1	9
7	496	9.1	9
7	533	9.8	9
7	533	9.8	9
7	570	10.5	9
7	570	10.5	9
7	607	11.2	9
7	607	11.2	9
7	644	11.9	9
7	644	11.9	9
7	681	12.6	9
7	681	12.6	9
8	4	0.7	1
8	65	0.71012	0
8	89	1.4	1
8	102	1.40068	0
8	126	2.1	1
8	139	2.10068	0
8	163	2.8	1
8	176	2.80068	0
8	200	3.5	1
8	213	3.50068	0
8	237	4.2	1
8	250	4.20068	0
8	274	4.9	1
8	287	4.90068	0
8	311	5.6	1
8	324	5.60068	0
8	348	6.3	1
8	361	6.30068	0
8	385	7	1
8	398	7.00068	0
8	422	7.7	1
8	435	7.70068	0
8	459	8.4	1
8	472	8.40068	0
8	496	9.1	1
8	509	9.10068	0
8	533	9.8	1
8	546	9.80068	0
8	570	10.5	1
8	583	10.50068	0
8	607	11.2	1
8	620	11.20068	0
8	644	11.9	1
8	657	11.90068	0
8	681	12.6	1
8	694	12.60068	0
9	4	0.7	9
9	65	0.71012	0
9	89	1.4	9
9	102	1.40068	0
9	126	2.1	9
9	139	2.10068	0
9	163	2.8	9
9	176	2.80068	0
9	200	3.5	9
9	213	3.50068	0
9	237	4.2	9
9	250	4.20068	0
9	274	4.9	9
9	287	4.90068	0
9	311	5.6	9
9	324	5.60068	0
9	348	6.3	9
9	361	6.30068	0
9	385	7	9
9	398	7.00068	0
9	422	7.7	9
9	435	7.70068	0
9	459	8.4	9
9	472	8.40068	0
9	496	9.1	9
9	509	9.10068	0
9	533	9.8	9
9	546	9.80068	0
9	570	10.5	9
9	583	10.50068	0
9	607	11.2	9
9	620	11.20068	0
9	644	11.9	9
9	657	11.90068	0
9	681	12.6	9
9	694	12.60068	0
10	53	0.70945	9
10	90	1.40001	9
10	127	2.10001	9
10	164	2.80001	9
10	201	3.50001	9
10	238	4.20001	9
10	275	4.90001	9
10	312	5.60001	9
10	349	6.30001	9
10	386	7.00001	9
10	423	7.70001	9
10	460	8.40001	9
10	497	9.10001	9
10	534	9.80001	9
10	571	10.50001	9
10	608	11.20001	9
10	645	11.90001	9
10	682	12.60001	9
11	66	0.71012	0.01012
11	83	0.71234	0.01234
11	103	1.40068	0.00068
11	120	1.4029	0.0029
11	140	2.10068	0.00068
11	157	2.1029	0.0029
11	177	2.80068	0.00068
11	194	2.8029	0.0029
11	214	3.50068	0.00068
11	231	3.5029	0.0029
11	251	4.20068	0.00068
11	268	4.2029	0.0029
11	288	4.90068	0.00068
11	305	4.9029	0.0029
11	325	5.60068	0.00068
11	342	5.6029	0.0029
11	362	6.30068	0.00068
11	379	6.3029	0.0029
11	399	7.00068	0.00068
11	416	7.0029	0.0029
11	436	7.70068	0.00068
11	453	7.7029	0.0029
11	473	8.40068	0.00068
11	490	8.4029	0.0029
11	510	9.10068	0.00068
11	527	9.1029	0.0029
11	547	9.80068	0.00068
11	564	9.8029	0.0029
11	584	10.50068	0.00068
11	601	10.5029	0.0029
11	621	11.20068	0.00068
11	638	11.2029	0.0029
11	658	11.90068	0.00068
11	675	11.9029	0.0029
11	695	12.60068	0.00068
11	712	12.6029	0.0029
12	66	0.71012	0.01012
12	83	0.71234	0.01234
12	103	1.40068	0.00068
12	120	1.4029	0.0029
12	140	2.10068	0.00068
12	157	2.1029	0.0029
12	177	2.80068	0.00068
12	194	2.8029	0.0029
12	214	3.50068	0.00068
12	231	3.5029	0.0029
12	251	4.20068	0.00068
12	268	4.2029	0.0029
12	288	4.90068	0.00068
12	305	4.9029	0.0029
12	325	5.60068	0.00068
12	342	5.6029	0.0029
12	362	6.30068	0.00068
12	379	6.3029	0.0029
12	399	7.00068	0.00068
12	416	7.0029	0.0029
12	436	7.70068	0.00068
12	453	7.7029	0.0029
12	473	8.40068	0.00068
12	490	8.4029	0.0029
12	510	9.10068	0.00068
12	527	9.1029	0.0029
12	547	9.80068	0.00068
12	564	9.8029	0.0029
12	584	10.50068	0.00068
12	601	10.5029	0.0029
12	621	11.20068	0.00068
12	638	11.2029	0.0029
12	658	11.90068	0.00068
12	675	11.9029	0.0029
12	695	12.60068	0.00068
12	712	12.6029	0.0029
13	67	0.71012	9
13	84	0.71234	10
13	104	1.40068	9
13	121	1.4029	10
13	141	2.10068	9
13	158	2.1029	10
13	178	2.80068	9
13	195	2.8029	10
13	215	3.50068	9
13	232	3.5029	10
13	252	4.20068	9
13	269	4.2029	10
13	289	4.90068	9
13	306	4.9029	10
13	326	5.60068	9
13	343	5.6029	10
13	363	6.30068	9
13	380	6.3029	10
13	400	7.00068	9
13	417	7.0029	10
13	437	7.70068	9
13	454	7.7029	10
13	474	8.40068	9
13	491	8.4029	10
13	511	9.10068	9
13	528	9.1029	10
13	548	9.80068	9
13	565	9.8029	10
13	585	10.50068	9
13	602	10.5029	10
13	622	11.20068	9
13	639	11.2029	10
13	659	11.90068	9
13	676	11.9029	10
13	696	12.60068	9
13	713	12.6029	10
14	67	0.71012	9
14	84	0.71234	10
14	104	1.40068	9
14	121	1.4029	10
14	141	2.10068	9
14	158	2.1029	10
14	178	2.80068	9
14	195	2.8029	10
14	215	3.50068	9
14	232	3.5029	10
14	252	4.20068	9
14	269	4.2029	10
14	289	4.90068	9
14	306	4.9029	10
14	326	5.60068	9
14	343	5.6029	10
14	363	6.30068	9
14	380	6.3029	10
14	400	7.00068	9
14	417	7.0029	10
14	437	7.70068	9
14	454	7.7029	10
14	474	8.40068	9
14	491	8.4029	10
14	511	9.10068	9
14	528	9.1029	10
14	548	9.80068	9
14	565	9.8029	10
14	585	10.50068	9
14	602	10.5029	10
14	622	11.20068	9
14	639	11.2029	10
14	659	11.90068	9
14	676	11.9029	10
14	696	12.60068	9
14	713	12.6029	10
15	68	0.71012	0.01012
15	85	0.71234	0.01234
15	105	1.40068	0.00068
15	122	1.4029	0.0029
15	142	2.10068	0.00068
15	159	2.1029	0.0029
15	179	2.80068	0.00068
15	196	2.8029	0.0029
15	216	3.50068	0.00068
15	233	3.5029	0.0029
15	253	4.20068	0.00068
15	270	4.2029	0.0029
15	290	4.90068	0.00068
15	307	4.9029	0.0029
15	327	5.60068	0.00068
15	344	5.6029	0.0029
15	364	6.30068	0.00068
15	381	6.3029	0.0029
15	401	7.00068	0.00068
15	418	7.0029	0.0029
15	438	7.70068	0.00068
15	455	7.7029	0.0029
15	475	8.40068	0.00068
15	492	8.4029	0.0029
15	512	9.10068	0.00068
15	529	9.1029	0.0029
15	549	9.80068	0.00068
15	566	9.8029	0.0029
15	586	10.50068	0.00068
15	603	10.5029	0.0029
15	623	11.20068	0.00068
15	640	11.2029	0.0029
15	660	11.90068	0.00068
15	677	11.9029	0.0029
15	697	12.60068	0.00068
15	714	12.6029	0.0029
16	68	0.71012	0.01012
16	85	0.71234	0.01234
16	105	1.40068	0.00068
16	122	1.4029	0.0029
16	142	2.10068	0.00068
16	159	2.1029	0.0029
16	179	2.80068	0.00068
16	196	2.8029	0.0029
16	216	3.50068	0.00068
16	233	3.5029	0.0029
16	253	4.20068	0.00068
16	270	4.2029	0.0029
16	290	4.90068	0.00068
16	307	4.9029	0.0029
16	327	5.60068	0.00068
16	344	5.6029	0.0029
16	364	6.30068	0.00068
16	381	6.3029	0.0029
16	401	7.00068	0.00068
16	418	7.0029	0.0029
16	438	7.70068	0.00068
16	455	7.7029	0.0029
16	475	8.40068	0.00068
16	492	8.4029	0.0029
16	512	9.10068	0.00068
16	529	9.1029	0.0029
16	549	9.80068	0.00068
16	566	9.8029	0.0029
16	586	10.50068	0.00068
16	603	10.5029	0.0029
16	623	11.20068	0.00068
16	640	11.2029	0.0029
16	660	11.90068	0.00068
16	677	11.9029	0.0029
16	697	12.60068	0.00068
16	714	12.6029	0.0029
17	70	0.71159	10
17	107	1.40215	10
17	144	2.10215	10
17	181	2.80215	10
17	218	3.50215	10
17	255	4.20215	10
17	292	4.90215	10
17	329	5.60215	10
17	366	6.30215	10
17	403	7.00215	10
17	440	7.70215	10
17	477	8.40215	10
17	514	9.10215	10
17	551	9.80215	10
17	588	10.50215	10
17	625	11.20215	10
17	662	11.90215	10
17	699	12.60215	10
0	715	13.3	0
0	735	14	0
0	755	14.7	0
0	775	15.4	0
0	795	16.1	0
0	815	16.8	0
0	835	17.5	0
0	855	18.2	0
1	716	13.3	0
1	736	14	0
1	756	14.7	0
1	776	15.4	0
1	796	16.1	0
1	816	16.8	0
1	836	17.5	0
1	856	18.2	0
3	717	13.3	10
3	717	13.3	10
3	731	13.30068	10
4	717	13.3	1
5	717	13.3	10
6	717	13.3	1
6	718	13.3	2
6	731	13.30068	0
6	738	14	1
6	751	14.00068	0
6	758	14.7	1
6	771	14.70068	0
6	778	15.4	1
6	791	15.40068	0
6	798	16.1	1
6	811	16.10068	0
6	818	16.8	1
6	831	16.80068	0
6	838	17.5	1
6	851	17.50068	0
6	858	18.2	1
7	718	13.3	9
7	718	13.3	9
7	738	14	9
7	738	14	9
7	758	14.7	9
7	758	14.7	9
7	778	15.4	9
7	778	15.4	9
7	798	16.1	9
7	798	16.1	9
7	818	16.8	9
7	818	16.8	9
7	838	17.5	9
7	838	17.5	9
7	858	18.2	9
7	858	18.2	9
8	718	13.3	1
8	731	13.30068	0
8	738	14	1
8	751	14.00068	0
8	758	14.7	1
8	771	14.70068	0
8	778	15.4	1
8	791	15.40068	0
8	798	16.1	1
8	811	16.10068	0
8	818	16.8	1
8	831	16.80068	0
8	838	17.5	1
8	851	17.50068	0
8	858	18.2	1
9	718	13.3	9
9	731	13.30068	0
9	738	14	9
9	751	14.00068	0
9	758	14.7	9
9	771	14.70068	0
9	778	15.4	9
9	791	15.40068	0
9	798	16.1	9
9	811	16.10068	0
9	818	16.8	9
9	831	16.80068	0
9	838	17.5	9
9	851	17.50068	0
9	858	18.2	9
10	719	13.30001	9
10	739	14.00001	9
10	759	14.70001	9
10	779	15.40001	9
10	799	16.10001	9
10	819	16.80001	9
10	839	17.50001	9
10	859	18.20001	9
11	732	13.30068	0.00068
11	752	14.00068	0.00068
11	772	14.70068	0.00068
11	792	15.40068	0.00068
11	812	16.10068	0.00068
11	832	16.80068	0.00068
11	852	17.50068	0.00068
12	732	13.30068	0.00068
12	752	14.00068	0.00068
12	772	14.70068	0.00068
12	792	15.40068	0.00068
12	812	16.10068	0.00068
12	832	16.80068	0.00068
12	852	17.50068	0.00068
13	733	13.30068	9
13	753	14.00068	9
13	773	14.70068	9
13	793	15.40068	9
13	813	16.10068	9
13	833	16.80068	9
13	853	17.50068	9
14	733	13.30068	9
14	753	14.00068	9
14	773	14.70068	9
14	793	15.40068	9
14	813	16.10068	9
14	833	16.80068	9
14	853	17.50068	9
15	734	13.30068	0.00068
15	754	14.00068	0.00068
15	774	14.70068	0.00068
15	794	15.40068	0.00068
15	814	16.10068	0.00068
15	834	16.80068	0.00068
15	854	17.50068	0.00068
16	734	13.30068	0.00068
16	754	14.00068	0.00068
16	774	14.70068	0.00068
16	794	15.40068	0.00068
16	814	16.10068	0.00068
16	834	16.80068	0.00068
16	854	17.50068	0.00068

