file 18693 1608920739                                           
version 2
run General-0-20201225-23:51:56-16640
attr configname General
attr datetime 20201225-23:51:56
attr experiment General
attr inifile omnetpp.ini
attr iterationvars ""
attr iterationvarsf ""
attr measurement ""
attr network Busoff_test1
attr processid 16640
attr repetition 0
attr replication #0
attr resultdir results
attr runnumber 0
attr seedset 0
param **.bandwidth 0.1Mbps
param **.bitStuffingPercentage 0
param **.version "\"2.0B\""
param Busoff_test1.Victim.sourceApp[0].idDataFrames "\"2\""
param Busoff_test1.Victim.sourceApp[0].periodicityDataFrames "\"0.700\""
param Busoff_test1.Victim.sourceApp[0].dataLengthDataFrames "\"1\""
param Busoff_test1.Victim.sourceApp[0].initialDataFrameOffset "\"0.700\""
param Busoff_test1.Adversary.sourceApp[0].idDataFrames "\"2\""
param Busoff_test1.Adversary.sourceApp[0].periodicityDataFrames "\"0.700\""
param Busoff_test1.Adversary.sourceApp[0].dataLengthDataFrames "\"0\""
param Busoff_test1.Adversary.sourceApp[0].initialDataFrameOffset "\"0.700\""
param Busoff_test1.Receiver.bufferIn[0].idIncomingFrames "\"2\""

vector 0 Busoff_test1.Victim.canClock clockDrift:vector ETV
attr interpolationmode linear
attr source clockDrift
attr title "clockDrift, vector"
attr unit s
vector 1 Busoff_test1.Adversary.canClock clockDrift:vector ETV
attr interpolationmode linear
attr source clockDrift
attr title "clockDrift, vector"
attr unit s
vector 2 Busoff_test1.Receiver.canClock clockDrift:vector ETV
attr interpolationmode linear
attr source clockDrift
attr title "clockDrift, vector"
attr unit s
vector 3 Busoff_test1.Victim.bufferOut rxPk:vector(packetBytes) ETV
attr interpolationmode none
attr source rxPk
attr title "RX Packets, vector(packetBytes)"
vector 4 Busoff_test1.Victim.bufferOut length:vector ETV
attr interpolationmode sample-hold
attr source length
attr title "Queue Length, vector"
attr unit packets
vector 5 Busoff_test1.Victim.bufferOut size:vector ETV
attr interpolationmode sample-hold
attr source size
attr title "Queue Size, vector"
attr unit B
vector 6 Busoff_test1.bus.canBusLogic arbitrationLength:vector ETV
attr interpolationmode sample-hold
attr source arbitrationLength
attr title "Arbitration Length, vector"
attr unit packets
vector 7 Busoff_test1.Adversary.bufferOut rxPk:vector(packetBytes) ETV
attr interpolationmode none
attr source rxPk
attr title "RX Packets, vector(packetBytes)"
vector 8 Busoff_test1.Adversary.bufferOut length:vector ETV
attr interpolationmode sample-hold
attr source length
attr title "Queue Length, vector"
attr unit packets
vector 9 Busoff_test1.Adversary.bufferOut size:vector ETV
attr interpolationmode sample-hold
attr source size
attr title "Queue Size, vector"
attr unit B
vector 10 Busoff_test1.Adversary.bufferOut txPk:vector(packetBytes) ETV
attr interpolationmode none
attr source txPk
attr title "TX Packets, vector(packetBytes)"
0	2936 20 0 1 0 0.7 2 0 0 0 0
1	2956 20 0 2 0 0.7 2 0 0 0 0
2	2976 9 0 0 0 0 1 0 0 0 0
3	2985 291 3 901 0.7 0.70785 17 10 10 170 1700
4	3276 11 3 3 0.7 0.7 1 1 1 1 1
5	3287 12 3 3 0.7 0.7 1 10 10 10 100
6	3299 492 3 899 0.7 0.70784 30 1 2 45 75
7	3791 22 4 4 0.7 0.7 2 9 9 18 162
8	3813 11 4 4 0.7 0.7 1 1 1 1 1
9	3824 11 4 4 0.7 0.7 1 9 9 9 81
10	3835 267 5 901 0.70001 0.70785 15 9 9 135 1215
vector 11 Busoff_test1.Receiver.canNodePort.canPortInput rxDFLatency:vector ETV
attr interpolationmode linear
attr source timestampAge(rxDF)
attr title "End-to-end latency of data frames, vector"
attr unit s
vector 12 Busoff_test1.Receiver.canNodePort.canPortInput rxDFPayloadLatency:vector ETV
attr interpolationmode linear
attr source timestampAge(rxDFPayload)
attr title "End-to-end latency of data frame payload, vector"
attr unit s
vector 13 Busoff_test1.Receiver.bufferIn[0] rxPk:vector(packetBytes) ETV
attr interpolationmode none
attr source rxPk
attr title "RX Packets, vector(packetBytes)"
vector 14 Busoff_test1.Receiver.bufferIn[0] txPk:vector(packetBytes) ETV
attr interpolationmode none
attr source txPk
attr title "TX Packets, vector(packetBytes)"
vector 15 Busoff_test1.Receiver.sinkApp[0] rxDFLatency:vector ETV
attr interpolationmode linear
attr source timestampAge(rxDF)
attr title "End-to-end latency of data frames, vector"
attr unit s
vector 16 Busoff_test1.Receiver.sinkApp[0] rxDFPayloadLatency:vector ETV
attr interpolationmode linear
attr source timestampAge(rxDFPayload)
attr title "End-to-end latency of data frame payload, vector"
attr unit s
vector 17 Busoff_test1.Victim.bufferOut txPk:vector(packetBytes) ETV
attr interpolationmode none
attr source txPk
attr title "TX Packets, vector(packetBytes)"
0	5465 28 1068 1125 1.4 2.1 2 0 0 0 0
1	5493 28 1069 1126 1.4 2.1 2 0 0 0 0
3	5521 135 965 1129 0.70841 2.10001 8 10 10 80 800
4	5656 80 1057 1171 0.71116 2.1022 5 0 1 2 2
5	5736 82 1057 1171 0.71116 2.1022 5 0 10 20 200
6	5818 283 962 1171 0.7084 2.1022 17 0 2 15 23
7	6101 56 1071 1128 1.4 2.1 4 9 9 36 324
8	6157 82 1020 1134 0.70964 2.10068 5 0 1 2 2
9	6239 82 1020 1134 0.70964 2.10068 5 0 9 18 162
10	6321 75 965 1129 0.70841 2.10001 4 9 9 36 324
11	6396 125 1033 1147 0.71031 2.10135 5 0.00135 0.01191 0.02787 0.0002604917
12	6521 125 1033 1147 0.71031 2.10135 5 0.00135 0.01191 0.02787 0.0002604917
13	6646 97 1034 1148 0.71031 2.10135 5 9 10 47 443
14	6743 97 1034 1148 0.71031 2.10135 5 9 10 47 443
15	6840 125 1035 1149 0.71031 2.10135 5 0.00135 0.01191 0.02787 0.0002604917
16	6965 125 1035 1149 0.71031 2.10135 5 0.00135 0.01191 0.02787 0.0002604917
17	7090 60 1052 1166 0.71041 2.10145 3 10 10 30 300
0	7150 42 1182 1296 2.8 4.2 3 0 0 0 0
1	7192 42 1183 1297 2.8 4.2 3 0 0 0 0
3	7234 128 1184 1298 2.8 4.2 8 10 10 80 800
4	7362 76 1184 1298 2.8 4.2 5 0 1 3 3
5	7438 79 1184 1298 2.8 4.2 5 0 10 30 300
6	7517 190 1184 1299 2.8 4.2 12 0 2 11 17
7	7707 84 1185 1299 2.8 4.2 6 9 9 54 486
8	7791 78 1185 1299 2.8 4.2 5 0 1 3 3
9	7869 78 1185 1299 2.8 4.2 5 0 9 27 243
10	7947 38 1186 1243 2.80001 3.50001 2 9 9 18 162
11	7985 125 1179 1293 2.10295 3.50295 5 0.00135 0.00295 0.01155 2.97525e-005
12	8110 125 1179 1293 2.10295 3.50295 5 0.00135 0.00295 0.01155 2.97525e-005
13	8235 98 1180 1294 2.10295 3.50295 5 9 10 48 462
14	8333 98 1180 1294 2.10295 3.50295 5 9 10 48 462
15	8431 125 1181 1295 2.10295 3.50295 5 0.00135 0.00295 0.01155 2.97525e-005
16	8556 125 1181 1295 2.10295 3.50295 5 0.00135 0.00295 0.01155 2.97525e-005
17	8681 40 1223 1280 2.80145 3.50145 2 10 10 20 200
0	8721 14 1353 1353 4.9 4.9 1 0 0 0 0
1	8735 14 1354 1354 4.9 4.9 1 0 0 0 0
3	8749 68 1300 1357 4.20001 4.90001 4 10 10 40 400
4	8817 48 1342 1399 4.2022 4.9022 3 0 1 1 1
5	8865 49 1342 1399 4.2022 4.9022 3 0 10 10 100
6	8914 134 1305 1399 4.20068 4.9022 8 0 2 5 7
7	9048 28 1356 1356 4.9 4.9 2 9 9 18 162
8	9076 50 1305 1362 4.20068 4.90068 3 0 1 1 1
9	9126 50 1305 1362 4.20068 4.90068 3 0 9 9 81
10	9176 38 1300 1357 4.20001 4.90001 2 9 9 18 162
11	9214 75 1318 1375 4.20135 4.90135 3 0.00135 0.00295 0.00565 1.23475e-005
12	9289 75 1318 1375 4.20135 4.90135 3 0.00135 0.00295 0.00565 1.23475e-005
13	9364 58 1319 1376 4.20135 4.90135 3 9 10 28 262
14	9422 58 1319 1376 4.20135 4.90135 3 9 10 28 262
15	9480 75 1320 1377 4.20135 4.90135 3 0.00135 0.00295 0.00565 1.23475e-005
16	9555 75 1320 1377 4.20135 4.90135 3 0.00135 0.00295 0.00565 1.23475e-005
17	9630 40 1337 1394 4.20145 4.90145 2 10 10 20 200
0	9670 82 1410 1695 5.6 9.1 6 0 0 0 0
1	9752 82 1411 1696 5.6 9.1 6 0 0 0 0
3	9834 290 1412 1699 5.6 9.10001 18 10 10 180 1800
4	10124 167 1412 1697 5.6 9.1 11 0 1 6 6
5	10291 173 1412 1697 5.6 9.1 11 0 10 60 600
6	10464 429 1412 1698 5.6 9.1 27 0 2 23 35
7	10893 164 1413 1698 5.6 9.1 12 9 9 108 972
8	11057 172 1413 1698 5.6 9.1 11 0 1 6 6
9	11229 172 1413 1698 5.6 9.1 11 0 9 54 486
10	11401 114 1414 1699 5.60001 9.10001 6 9 9 54 486
11	11515 275 1407 1692 4.90295 8.40295 11 0.00135 0.00295 0.02445 6.13275e-005
12	11790 275 1407 1692 4.90295 8.40295 11 0.00135 0.00295 0.02445 6.13275e-005
13	12065 215 1408 1693 4.90295 8.40295 11 9 10 105 1005
14	12280 215 1408 1693 4.90295 8.40295 11 9 10 105 1005
15	12495 275 1409 1694 4.90295 8.40295 11 0.00135 0.00295 0.02445 6.13275e-005
16	12770 275 1409 1694 4.90295 8.40295 11 0.00135 0.00295 0.02445 6.13275e-005
17	13045 100 1451 1679 5.60145 8.40145 5 10 10 50 500
0	13145 44 1752 1866 9.8 11.2 3 0 0 0 0
1	13189 44 1753 1867 9.8 11.2 3 0 0 0 0
3	13233 153 1754 1870 9.8 11.20001 9 10 10 90 900
4	13386 96 1741 1868 9.1022 11.2 6 0 1 3 3
5	13482 99 1741 1868 9.1022 11.2 6 0 10 30 300
6	13581 269 1704 1875 9.10068 11.20068 16 0 2 12 18
7	13850 88 1755 1869 9.8 11.2 6 9 9 54 486
8	13938 118 1704 1875 9.10068 11.20068 7 0 1 3 3
9	14056 118 1704 1875 9.10068 11.20068 7 0 9 27 243
10	14174 59 1756 1870 9.80001 11.20001 3 9 9 27 243
11	14233 178 1717 1888 9.10135 11.20135 7 0.00135 0.00295 0.01425 3.33975e-005
12	14411 178 1717 1888 9.10135 11.20135 7 0.00135 0.00295 0.01425 3.33975e-005
13	14589 139 1718 1889 9.10135 11.20135 7 9 10 66 624
14	14728 139 1718 1889 9.10135 11.20135 7 9 10 66 624
15	14867 178 1719 1890 9.10135 11.20135 7 0.00135 0.00295 0.01425 3.33975e-005
16	15045 178 1719 1890 9.10135 11.20135 7 0.00135 0.00295 0.01425 3.33975e-005
17	15223 61 1736 1850 9.10145 10.50145 3 10 10 30 300
0	15284 118 1923 2137 11.9 16.8 8 0 0 0 0
1	15402 118 1924 2138 11.9 16.8 8 0 0 0 0
3	15520 156 1925 2041 11.9 13.30001 9 10 10 90 900
4	15676 99 1912 2039 11.2022 13.3 6 0 1 3 3
5	15775 102 1912 2039 11.2022 13.3 6 0 10 30 300
6	15877 407 1906 2140 11.20144 16.8 24 0 2 17 23
7	16284 236 1926 2140 11.9 16.8 16 9 9 144 1296
8	16520 251 1926 2140 11.9 16.8 15 0 1 8 8
9	16771 251 1926 2140 11.9 16.8 15 0 9 72 648
10	17022 160 1927 2141 11.90001 16.80001 8 9 9 72 648
11	17182 260 1920 2134 11.20295 16.10135 10 0.00135 0.00295 0.0183 3.8865e-005
12	17442 260 1920 2134 11.20295 16.10135 10 0.00135 0.00295 0.0183 3.8865e-005
13	17702 203 1921 2135 11.20295 16.10135 10 9 10 93 867
14	17905 203 1921 2135 11.20295 16.10135 10 9 10 93 867
15	18108 260 1922 2136 11.20295 16.10135 10 0.00135 0.00295 0.0183 3.8865e-005
16	18368 260 1922 2136 11.20295 16.10135 10 0.00135 0.00295 0.0183 3.8865e-005
17	18628 63 1907 2021 11.20145 12.60145 3 10 10 30 300

