version 2
run General-0-20210110-09:56:42-3180
attr configname General
attr datetime 20210110-09:56:42
attr experiment General
attr inifile omnetpp.ini
attr iterationvars ""
attr iterationvarsf ""
attr measurement ""
attr network Busoff_test1
attr processid 3180
attr repetition 0
attr replication #0
attr resultdir results
attr runnumber 0
attr seedset 0
param **.bandwidth 0.1Mbps
param **.bitStuffingPercentage 0
param **.version "\"2.0B\""
param Busoff_test1.Victim.sourceApp[0].idDataFrames "\"2\""
param Busoff_test1.Victim.sourceApp[0].periodicityDataFrames "\"0.700\""
param Busoff_test1.Victim.sourceApp[0].dataLengthDataFrames "\"1\""
param Busoff_test1.Victim.sourceApp[0].initialDataFrameOffset "\"0.700\""
param Busoff_test1.Adversary.sourceApp[0].idDataFrames "\"2\""
param Busoff_test1.Adversary.sourceApp[0].periodicityDataFrames "\"0.700\""
param Busoff_test1.Adversary.sourceApp[0].dataLengthDataFrames "\"0\""
param Busoff_test1.Adversary.sourceApp[0].initialDataFrameOffset "\"0.700\""
param Busoff_test1.Receiver.bufferIn[0].idIncomingFrames "\"2\""

vector 0 Busoff_test1.Victim.canClock clockDrift:vector ETV
attr interpolationmode linear
attr source clockDrift
attr title "clockDrift, vector"
attr unit s
vector 1 Busoff_test1.Adversary.canClock clockDrift:vector ETV
attr interpolationmode linear
attr source clockDrift
attr title "clockDrift, vector"
attr unit s
vector 2 Busoff_test1.Receiver.canClock clockDrift:vector ETV
attr interpolationmode linear
attr source clockDrift
attr title "clockDrift, vector"
attr unit s
vector 3 Busoff_test1.Victim.bufferOut rxPk:vector(packetBytes) ETV
attr interpolationmode none
attr source rxPk
attr title "RX Packets, vector(packetBytes)"
vector 4 Busoff_test1.Victim.bufferOut length:vector ETV
attr interpolationmode sample-hold
attr source length
attr title "Queue Length, vector"
attr unit packets
vector 5 Busoff_test1.Victim.bufferOut size:vector ETV
attr interpolationmode sample-hold
attr source size
attr title "Queue Size, vector"
attr unit B
vector 6 Busoff_test1.bus.canBusLogic arbitrationLength:vector ETV
attr interpolationmode sample-hold
attr source arbitrationLength
attr title "Arbitration Length, vector"
attr unit packets
vector 7 Busoff_test1.Adversary.bufferOut rxPk:vector(packetBytes) ETV
attr interpolationmode none
attr source rxPk
attr title "RX Packets, vector(packetBytes)"
vector 8 Busoff_test1.Adversary.bufferOut length:vector ETV
attr interpolationmode sample-hold
attr source length
attr title "Queue Length, vector"
attr unit packets
vector 9 Busoff_test1.Adversary.bufferOut size:vector ETV
attr interpolationmode sample-hold
attr source size
attr title "Queue Size, vector"
attr unit B
vector 10 Busoff_test1.Adversary.bufferOut txPk:vector(packetBytes) ETV
attr interpolationmode none
attr source txPk
attr title "TX Packets, vector(packetBytes)"
vector 11 Busoff_test1.Victim.bufferOut txPk:vector(packetBytes) ETV
attr interpolationmode none
attr source txPk
attr title "TX Packets, vector(packetBytes)"
vector 12 Busoff_test1.Receiver.canNodePort.canPortInput rxDFLatency:vector ETV
attr interpolationmode linear
attr source timestampAge(rxDF)
attr title "End-to-end latency of data frames, vector"
attr unit s
vector 13 Busoff_test1.Receiver.canNodePort.canPortInput rxDFPayloadLatency:vector ETV
attr interpolationmode linear
attr source timestampAge(rxDFPayload)
attr title "End-to-end latency of data frame payload, vector"
attr unit s
vector 14 Busoff_test1.Receiver.bufferIn[0] rxPk:vector(packetBytes) ETV
attr interpolationmode none
attr source rxPk
attr title "RX Packets, vector(packetBytes)"
vector 15 Busoff_test1.Receiver.bufferIn[0] txPk:vector(packetBytes) ETV
attr interpolationmode none
attr source txPk
attr title "TX Packets, vector(packetBytes)"
vector 16 Busoff_test1.Receiver.sinkApp[0] rxDFLatency:vector ETV
attr interpolationmode linear
attr source timestampAge(rxDF)
attr title "End-to-end latency of data frames, vector"
attr unit s
vector 17 Busoff_test1.Receiver.sinkApp[0] rxDFPayloadLatency:vector ETV
attr interpolationmode linear
attr source timestampAge(rxDFPayload)
attr title "End-to-end latency of data frame payload, vector"
attr unit s
0	0	0	0
0	1	0.7	0
0	1065	1.4	0
0	1119	2.1	0
0	1173	2.8	0
0	1227	3.5	0
0	1281	4.2	0
0	1335	4.9	0
0	1389	5.6	0
0	1443	6.3	0
0	1497	7	0
0	1551	7.7	0
0	1605	8.4	0
0	1659	9.1	0
0	1713	9.8	0
0	1767	10.5	0
0	1821	11.2	0
0	1875	11.9	0
0	1929	12.6	0
0	1983	13.3	0
1	0	0	0
1	2	0.7	0
1	1066	1.4	0
1	1120	2.1	0
1	1174	2.8	0
1	1228	3.5	0
1	1282	4.2	0
1	1336	4.9	0
1	1390	5.6	0
1	1444	6.3	0
1	1498	7	0
1	1552	7.7	0
1	1606	8.4	0
1	1660	9.1	0
1	1714	9.8	0
1	1768	10.5	0
1	1822	11.2	0
1	1876	11.9	0
1	1930	12.6	0
1	1984	13.3	0
2	0	0	0
3	3	0.7	10
3	3	0.7	10
3	5	0.70001	10
3	69	0.70057	10
3	133	0.70113	10
3	197	0.70169	10
3	261	0.70225	10
3	325	0.70281	10
3	389	0.70337	10
3	453	0.70393	10
3	517	0.70449	10
3	581	0.70505	10
3	645	0.70561	10
3	709	0.70617	10
3	773	0.70673	10
3	837	0.70729	10
3	901	0.70785	10
3	965	0.70841	10
3	1015	0.70897	10
3	1067	1.4	10
3	1067	1.4	10
3	1069	1.40001	10
3	1121	2.1	10
3	1121	2.1	10
3	1123	2.10001	10
3	1175	2.8	10
3	1175	2.8	10
3	1177	2.80001	10
3	1229	3.5	10
3	1229	3.5	10
3	1231	3.50001	10
3	1283	4.2	10
3	1283	4.2	10
3	1285	4.20001	10
3	1337	4.9	10
3	1337	4.9	10
3	1339	4.90001	10
3	1391	5.6	10
3	1391	5.6	10
3	1393	5.60001	10
3	1445	6.3	10
3	1445	6.3	10
3	1447	6.30001	10
3	1499	7	10
3	1499	7	10
3	1501	7.00001	10
3	1553	7.7	10
3	1553	7.7	10
3	1555	7.70001	10
3	1607	8.4	10
3	1607	8.4	10
3	1609	8.40001	10
3	1661	9.1	10
3	1661	9.1	10
3	1663	9.10001	10
3	1715	9.8	10
3	1715	9.8	10
3	1717	9.80001	10
3	1769	10.5	10
3	1769	10.5	10
3	1771	10.50001	10
3	1823	11.2	10
3	1823	11.2	10
3	1825	11.20001	10
3	1877	11.9	10
3	1877	11.9	10
3	1879	11.90001	10
3	1931	12.6	10
3	1931	12.6	10
3	1933	12.60001	10
3	1985	13.3	10
3	1985	13.3	10
3	1987	13.30001	10
4	3	0.7	1
4	1054	0.71048	0
4	1067	1.4	1
4	1108	1.40152	0
4	1121	2.1	1
4	1162	2.10152	0
4	1175	2.8	1
4	1216	2.80152	0
4	1229	3.5	1
4	1270	3.50152	0
4	1283	4.2	1
4	1324	4.20152	0
4	1337	4.9	1
4	1378	4.90152	0
4	1391	5.6	1
4	1432	5.60152	0
4	1445	6.3	1
4	1486	6.30152	0
4	1499	7	1
4	1540	7.00152	0
4	1553	7.7	1
4	1594	7.70152	0
4	1607	8.4	1
4	1648	8.40152	0
4	1661	9.1	1
4	1702	9.10152	0
4	1715	9.8	1
4	1756	9.80152	0
4	1769	10.5	1
4	1810	10.50152	0
4	1823	11.2	1
4	1864	11.20152	0
4	1877	11.9	1
4	1918	11.90152	0
4	1931	12.6	1
4	1972	12.60152	0
4	1985	13.3	1
5	3	0.7	10
5	1054	0.71048	0
5	1067	1.4	10
5	1108	1.40152	0
5	1121	2.1	10
5	1162	2.10152	0
5	1175	2.8	10
5	1216	2.80152	0
5	1229	3.5	10
5	1270	3.50152	0
5	1283	4.2	10
5	1324	4.20152	0
5	1337	4.9	10
5	1378	4.90152	0
5	1391	5.6	10
5	1432	5.60152	0
5	1445	6.3	10
5	1486	6.30152	0
5	1499	7	10
5	1540	7.00152	0
5	1553	7.7	10
5	1594	7.70152	0
5	1607	8.4	10
5	1648	8.40152	0
5	1661	9.1	10
5	1702	9.10152	0
5	1715	9.8	10
5	1756	9.80152	0
5	1769	10.5	10
5	1810	10.50152	0
5	1823	11.2	10
5	1864	11.20152	0
5	1877	11.9	10
5	1918	11.90152	0
5	1931	12.6	10
5	1972	12.60152	0
5	1985	13.3	10
6	3	0.7	1
6	4	0.7	2
6	66	0.70056	1
6	67	0.70056	2
6	130	0.70112	1
6	131	0.70112	2
6	194	0.70168	1
6	195	0.70168	2
6	258	0.70224	1
6	259	0.70224	2
6	322	0.7028	1
6	323	0.7028	2
6	386	0.70336	1
6	387	0.70336	2
6	450	0.70392	1
6	451	0.70392	2
6	514	0.70448	1
6	515	0.70448	2
6	578	0.70504	1
6	579	0.70504	2
6	642	0.7056	1
6	643	0.7056	2
6	706	0.70616	1
6	707	0.70616	2
6	770	0.70672	1
6	771	0.70672	2
6	834	0.70728	1
6	835	0.70728	2
6	898	0.70784	1
6	899	0.70784	2
6	962	0.7084	1
6	963	0.7084	2
6	1013	0.70896	1
6	1014	0.70896	2
6	1025	0.70964	0
6	1048	0.70972	1
6	1054	0.71048	0
6	1067	1.4	1
6	1068	1.4	2
6	1079	1.40068	0
6	1102	1.40076	1
6	1108	1.40152	0
6	1121	2.1	1
6	1122	2.1	2
6	1133	2.10068	0
6	1156	2.10076	1
6	1162	2.10152	0
6	1175	2.8	1
6	1176	2.8	2
6	1187	2.80068	0
6	1210	2.80076	1
6	1216	2.80152	0
6	1229	3.5	1
6	1230	3.5	2
6	1241	3.50068	0
6	1264	3.50076	1
6	1270	3.50152	0
6	1283	4.2	1
6	1284	4.2	2
6	1295	4.20068	0
6	1318	4.20076	1
6	1324	4.20152	0
6	1337	4.9	1
6	1338	4.9	2
6	1349	4.90068	0
6	1372	4.90076	1
6	1378	4.90152	0
6	1391	5.6	1
6	1392	5.6	2
6	1403	5.60068	0
6	1426	5.60076	1
6	1432	5.60152	0
6	1445	6.3	1
6	1446	6.3	2
6	1457	6.30068	0
6	1480	6.30076	1
6	1486	6.30152	0
6	1499	7	1
6	1500	7	2
6	1511	7.00068	0
6	1534	7.00076	1
6	1540	7.00152	0
6	1553	7.7	1
6	1554	7.7	2
6	1565	7.70068	0
6	1588	7.70076	1
6	1594	7.70152	0
6	1607	8.4	1
6	1608	8.4	2
6	1619	8.40068	0
6	1642	8.40076	1
6	1648	8.40152	0
6	1661	9.1	1
6	1662	9.1	2
6	1673	9.10068	0
6	1696	9.10076	1
6	1702	9.10152	0
6	1715	9.8	1
6	1716	9.8	2
6	1727	9.80068	0
6	1750	9.80076	1
6	1756	9.80152	0
6	1769	10.5	1
6	1770	10.5	2
6	1781	10.50068	0
6	1804	10.50076	1
6	1810	10.50152	0
6	1823	11.2	1
6	1824	11.2	2
6	1835	11.20068	0
6	1858	11.20076	1
6	1864	11.20152	0
6	1877	11.9	1
6	1878	11.9	2
6	1889	11.90068	0
6	1912	11.90076	1
6	1918	11.90152	0
6	1931	12.6	1
6	1932	12.6	2
6	1943	12.60068	0
6	1966	12.60076	1
6	1972	12.60152	0
6	1985	13.3	1
6	1986	13.3	2
6	1992	13.30068	0
7	4	0.7	9
7	4	0.7	9
7	1068	1.4	9
7	1068	1.4	9
7	1122	2.1	9
7	1122	2.1	9
7	1176	2.8	9
7	1176	2.8	9
7	1230	3.5	9
7	1230	3.5	9
7	1284	4.2	9
7	1284	4.2	9
7	1338	4.9	9
7	1338	4.9	9
7	1392	5.6	9
7	1392	5.6	9
7	1446	6.3	9
7	1446	6.3	9
7	1500	7	9
7	1500	7	9
7	1554	7.7	9
7	1554	7.7	9
7	1608	8.4	9
7	1608	8.4	9
7	1662	9.1	9
7	1662	9.1	9
7	1716	9.8	9
7	1716	9.8	9
7	1770	10.5	9
7	1770	10.5	9
7	1824	11.2	9
7	1824	11.2	9
7	1878	11.9	9
7	1878	11.9	9
7	1932	12.6	9
7	1932	12.6	9
7	1986	13.3	9
7	1986	13.3	9
8	4	0.7	1
8	1025	0.70964	0
8	1068	1.4	1
8	1079	1.40068	0
8	1122	2.1	1
8	1133	2.10068	0
8	1176	2.8	1
8	1187	2.80068	0
8	1230	3.5	1
8	1241	3.50068	0
8	1284	4.2	1
8	1295	4.20068	0
8	1338	4.9	1
8	1349	4.90068	0
8	1392	5.6	1
8	1403	5.60068	0
8	1446	6.3	1
8	1457	6.30068	0
8	1500	7	1
8	1511	7.00068	0
8	1554	7.7	1
8	1565	7.70068	0
8	1608	8.4	1
8	1619	8.40068	0
8	1662	9.1	1
8	1673	9.10068	0
8	1716	9.8	1
8	1727	9.80068	0
8	1770	10.5	1
8	1781	10.50068	0
8	1824	11.2	1
8	1835	11.20068	0
8	1878	11.9	1
8	1889	11.90068	0
8	1932	12.6	1
8	1943	12.60068	0
8	1986	13.3	1
8	1992	13.30068	0
9	4	0.7	9
9	1025	0.70964	0
9	1068	1.4	9
9	1079	1.40068	0
9	1122	2.1	9
9	1133	2.10068	0
9	1176	2.8	9
9	1187	2.80068	0
9	1230	3.5	9
9	1241	3.50068	0
9	1284	4.2	9
9	1295	4.20068	0
9	1338	4.9	9
9	1349	4.90068	0
9	1392	5.6	9
9	1403	5.60068	0
9	1446	6.3	9
9	1457	6.30068	0
9	1500	7	9
9	1511	7.00068	0
9	1554	7.7	9
9	1565	7.70068	0
9	1608	8.4	9
9	1619	8.40068	0
9	1662	9.1	9
9	1673	9.10068	0
9	1716	9.8	9
9	1727	9.80068	0
9	1770	10.5	9
9	1781	10.50068	0
9	1824	11.2	9
9	1835	11.20068	0
9	1878	11.9	9
9	1889	11.90068	0
9	1932	12.6	9
9	1943	12.60068	0
9	1986	13.3	9
9	1992	13.30068	0
10	5	0.70001	9
10	69	0.70057	9
10	133	0.70113	9
10	197	0.70169	9
10	261	0.70225	9
10	325	0.70281	9
10	389	0.70337	9
10	453	0.70393	9
10	517	0.70449	9
10	581	0.70505	9
10	645	0.70561	9
10	709	0.70617	9
10	773	0.70673	9
10	837	0.70729	9
10	901	0.70785	9
10	965	0.70841	9
10	1015	0.70897	9
10	1069	1.40001	9
10	1123	2.10001	9
10	1177	2.80001	9
10	1231	3.50001	9
10	1285	4.20001	9
10	1339	4.90001	9
10	1393	5.60001	9
10	1447	6.30001	9
10	1501	7.00001	9
10	1555	7.70001	9
10	1609	8.40001	9
10	1663	9.10001	9
10	1717	9.80001	9
10	1771	10.50001	9
10	1825	11.20001	9
10	1879	11.90001	9
10	1933	12.60001	9
10	1987	13.30001	9
11	1049	0.70973	10
11	1103	1.40077	10
11	1157	2.10077	10
11	1211	2.80077	10
11	1265	3.50077	10
11	1319	4.20077	10
11	1373	4.90077	10
11	1427	5.60077	10
11	1481	6.30077	10
11	1535	7.00077	10
11	1589	7.70077	10
11	1643	8.40077	10
11	1697	9.10077	10
11	1751	9.80077	10
11	1805	10.50077	10
11	1859	11.20077	10
11	1913	11.90077	10
11	1967	12.60077	10
12	1062	0.71123	0.01123
12	1116	1.40227	0.00227
12	1170	2.10227	0.00227
12	1224	2.80227	0.00227
12	1278	3.50227	0.00227
12	1332	4.20227	0.00227
12	1386	4.90227	0.00227
12	1440	5.60227	0.00227
12	1494	6.30227	0.00227
12	1548	7.00227	0.00227
12	1602	7.70227	0.00227
12	1656	8.40227	0.00227
12	1710	9.10227	0.00227
12	1764	9.80227	0.00227
12	1818	10.50227	0.00227
12	1872	11.20227	0.00227
12	1926	11.90227	0.00227
12	1980	12.60227	0.00227
13	1062	0.71123	0.01123
13	1116	1.40227	0.00227
13	1170	2.10227	0.00227
13	1224	2.80227	0.00227
13	1278	3.50227	0.00227
13	1332	4.20227	0.00227
13	1386	4.90227	0.00227
13	1440	5.60227	0.00227
13	1494	6.30227	0.00227
13	1548	7.00227	0.00227
13	1602	7.70227	0.00227
13	1656	8.40227	0.00227
13	1710	9.10227	0.00227
13	1764	9.80227	0.00227
13	1818	10.50227	0.00227
13	1872	11.20227	0.00227
13	1926	11.90227	0.00227
13	1980	12.60227	0.00227
14	1063	0.71123	10
14	1117	1.40227	10
14	1171	2.10227	10
14	1225	2.80227	10
14	1279	3.50227	10
14	1333	4.20227	10
14	1387	4.90227	10
14	1441	5.60227	10
14	1495	6.30227	10
14	1549	7.00227	10
14	1603	7.70227	10
14	1657	8.40227	10
14	1711	9.10227	10
14	1765	9.80227	10
14	1819	10.50227	10
14	1873	11.20227	10
14	1927	11.90227	10
14	1981	12.60227	10
15	1063	0.71123	10
15	1117	1.40227	10
15	1171	2.10227	10
15	1225	2.80227	10
15	1279	3.50227	10
15	1333	4.20227	10
15	1387	4.90227	10
15	1441	5.60227	10
15	1495	6.30227	10
15	1549	7.00227	10
15	1603	7.70227	10
15	1657	8.40227	10
15	1711	9.10227	10
15	1765	9.80227	10
15	1819	10.50227	10
15	1873	11.20227	10
15	1927	11.90227	10
15	1981	12.60227	10
16	1064	0.71123	0.01123
16	1118	1.40227	0.00227
16	1172	2.10227	0.00227
16	1226	2.80227	0.00227
16	1280	3.50227	0.00227
16	1334	4.20227	0.00227
16	1388	4.90227	0.00227
16	1442	5.60227	0.00227
16	1496	6.30227	0.00227
16	1550	7.00227	0.00227
16	1604	7.70227	0.00227
16	1658	8.40227	0.00227
16	1712	9.10227	0.00227
16	1766	9.80227	0.00227
16	1820	10.50227	0.00227
16	1874	11.20227	0.00227
16	1928	11.90227	0.00227
16	1982	12.60227	0.00227
17	1064	0.71123	0.01123
17	1118	1.40227	0.00227
17	1172	2.10227	0.00227
17	1226	2.80227	0.00227
17	1280	3.50227	0.00227
17	1334	4.20227	0.00227
17	1388	4.90227	0.00227
17	1442	5.60227	0.00227
17	1496	6.30227	0.00227
17	1550	7.00227	0.00227
17	1604	7.70227	0.00227
17	1658	8.40227	0.00227
17	1712	9.10227	0.00227
17	1766	9.80227	0.00227
17	1820	10.50227	0.00227
17	1874	11.20227	0.00227
17	1928	11.90227	0.00227
17	1982	12.60227	0.00227

