file 3327 1608640320                                            
version 2
run General-0-20201222-17:58:39-2468
attr configname General
attr datetime 20201222-17:58:39
attr experiment General
attr inifile omnetpp.ini
attr iterationvars ""
attr iterationvarsf ""
attr measurement ""
attr network Busoff_test1
attr processid 2468
attr repetition 0
attr replication #0
attr resultdir results
attr runnumber 0
attr seedset 0
param **.bandwidth 0.1Mbps
param **.bitStuffingPercentage 0
param **.version "\"2.0B\""
param Busoff_test1.Victim.sourceApp[0].idDataFrames "\"2\""
param Busoff_test1.Victim.sourceApp[0].periodicityDataFrames "\"0.700\""
param Busoff_test1.Victim.sourceApp[0].dataLengthDataFrames "\"1\""
param Busoff_test1.Victim.sourceApp[0].initialDataFrameOffset "\"0.700\""
param Busoff_test1.Adversary.sourceApp[0].idDataFrames "\"2\""
param Busoff_test1.Adversary.sourceApp[0].periodicityDataFrames "\"0.700\""
param Busoff_test1.Adversary.sourceApp[0].dataLengthDataFrames "\"0\""
param Busoff_test1.Adversary.sourceApp[0].initialDataFrameOffset "\"0.700\""
param Busoff_test1.Receiver.bufferIn[0].idIncomingFrames "\"2\""

vector 0 Busoff_test1.Victim.canClock clockDrift:vector ETV
attr interpolationmode linear
attr source clockDrift
attr title "clockDrift, vector"
attr unit s
vector 1 Busoff_test1.Adversary.canClock clockDrift:vector ETV
attr interpolationmode linear
attr source clockDrift
attr title "clockDrift, vector"
attr unit s
vector 2 Busoff_test1.Receiver.canClock clockDrift:vector ETV
attr interpolationmode linear
attr source clockDrift
attr title "clockDrift, vector"
attr unit s
vector 3 Busoff_test1.Victim.bufferOut rxPk:vector(packetBytes) ETV
attr interpolationmode none
attr source rxPk
attr title "RX Packets, vector(packetBytes)"
vector 4 Busoff_test1.Victim.bufferOut length:vector ETV
attr interpolationmode sample-hold
attr source length
attr title "Queue Length, vector"
attr unit packets
vector 5 Busoff_test1.Victim.bufferOut size:vector ETV
attr interpolationmode sample-hold
attr source size
attr title "Queue Size, vector"
attr unit B
vector 6 Busoff_test1.bus.canBusLogic arbitrationLength:vector ETV
attr interpolationmode sample-hold
attr source arbitrationLength
attr title "Arbitration Length, vector"
attr unit packets
vector 7 Busoff_test1.Adversary.bufferOut rxPk:vector(packetBytes) ETV
attr interpolationmode none
attr source rxPk
attr title "RX Packets, vector(packetBytes)"
vector 8 Busoff_test1.Adversary.bufferOut length:vector ETV
attr interpolationmode sample-hold
attr source length
attr title "Queue Length, vector"
attr unit packets
vector 9 Busoff_test1.Adversary.bufferOut size:vector ETV
attr interpolationmode sample-hold
attr source size
attr title "Queue Size, vector"
attr unit B
vector 10 Busoff_test1.Adversary.bufferOut txPk:vector(packetBytes) ETV
attr interpolationmode none
attr source txPk
attr title "TX Packets, vector(packetBytes)"
0	2934 20 0 1 0 0.7 2 0 0 0 0
1	2954 20 0 2 0 0.7 2 0 0 0 0
2	2974 9 0 0 0 0 1 0 0 0 0
3	2983 40 3 5 0.7 0.70001 3 10 10 30 300
4	3023 11 3 3 0.7 0.7 1 1 1 1 1
5	3034 12 3 3 0.7 0.7 1 10 10 10 100
6	3046 38 3 20 0.7 0.70048 3 1 2 4 6
7	3084 22 4 4 0.7 0.7 2 9 9 18 162
8	3106 11 4 4 0.7 0.7 1 1 1 1 1
9	3117 11 4 4 0.7 0.7 1 9 9 9 81
10	3128 16 5 5 0.70001 0.70001 1 9 9 9 81
vector 11 Busoff_test1.Victim.bufferOut txPk:vector(packetBytes) ETV
attr interpolationmode none
attr source txPk
attr title "TX Packets, vector(packetBytes)"
11	3307 18 31 31 0.70049 0.70049 1 10 10 10 100

