version 2
run General-0-20201222-17:58:39-2468
attr configname General
attr datetime 20201222-17:58:39
attr experiment General
attr inifile omnetpp.ini
attr iterationvars ""
attr iterationvarsf ""
attr measurement ""
attr network Busoff_test1
attr processid 2468
attr repetition 0
attr replication #0
attr resultdir results
attr runnumber 0
attr seedset 0
param **.bandwidth 0.1Mbps
param **.bitStuffingPercentage 0
param **.version "\"2.0B\""
param Busoff_test1.Victim.sourceApp[0].idDataFrames "\"2\""
param Busoff_test1.Victim.sourceApp[0].periodicityDataFrames "\"0.700\""
param Busoff_test1.Victim.sourceApp[0].dataLengthDataFrames "\"1\""
param Busoff_test1.Victim.sourceApp[0].initialDataFrameOffset "\"0.700\""
param Busoff_test1.Adversary.sourceApp[0].idDataFrames "\"2\""
param Busoff_test1.Adversary.sourceApp[0].periodicityDataFrames "\"0.700\""
param Busoff_test1.Adversary.sourceApp[0].dataLengthDataFrames "\"0\""
param Busoff_test1.Adversary.sourceApp[0].initialDataFrameOffset "\"0.700\""
param Busoff_test1.Receiver.bufferIn[0].idIncomingFrames "\"2\""

statistic Busoff_test1.bus.canBusLogic arbitrationLength:stats
field count 3
field mean 1.3333333333333
field stddev 0.57735026918963
field min 1
field max 2
field sum 4
field sqrsum 6
attr interpolationmode sample-hold
attr source arbitrationLength
attr title "Arbitration Length, stats"
attr unit packets
scalar Busoff_test1.bus.canBusLogic utilization:last 100
attr source lowHighRatio(state)*100
attr title "Utilization, last"
attr unit %
scalar Busoff_test1.bus.canBusLogic framesPerSec:last 2.8551442561635
attr source sumPerDuration(constant1(rxPk))
attr title "Frames/sec, last"
attr unit fps
scalar Busoff_test1.bus.canBusLogic bitsPerSec:last 202.71524218761
attr source sumPerDuration(packetBits(rxPk))
attr title "Bits/sec, last"
attr unit bps
scalar Busoff_test1.bus.canBusLogic rxEF:count 4
attr interpolationmode none
attr source rxEF
attr title "error frames received, count"
scalar Busoff_test1.bus.canBusLogic rxRF:count 0
attr interpolationmode none
attr source rxRF
attr title "remote frames received, count"
scalar Busoff_test1.bus.canBusLogic rxDF:count 2
attr interpolationmode none
attr source rxDF
attr title "data frames received, count"
statistic Busoff_test1.Victim.canNodePort.canPortInput rxRFPayloadLatency:stats
field count 0
field mean nan
field stddev nan
field min nan
field max nan
field sum 0
field sqrsum 0
attr interpolationmode linear
attr source timestampAge(rxRFPayload)
attr title "End-to-end latency of remote frame payload, stats"
attr unit s
statistic Busoff_test1.Victim.canNodePort.canPortInput rxDFPayloadLatency:stats
field count 0
field mean nan
field stddev nan
field min nan
field max nan
field sum 0
field sqrsum 0
attr interpolationmode linear
attr source timestampAge(rxDFPayload)
attr title "End-to-end latency of data frame payload, stats"
attr unit s
scalar Busoff_test1.Victim.canNodePort.canPortInput rxRF:count 0
attr source rxRF
attr title "complete remote frames received, count"
statistic Busoff_test1.Victim.canNodePort.canPortInput rxRFLatency:stats
field count 0
field mean nan
field stddev nan
field min nan
field max nan
field sum 0
field sqrsum 0
attr interpolationmode linear
attr source timestampAge(rxRF)
attr title "End-to-end latency of remote frames, stats"
attr unit s
scalar Busoff_test1.Victim.canNodePort.canPortInput rxDF:count 0
attr source rxDF
attr title "complete data frames received, count"
statistic Busoff_test1.Victim.canNodePort.canPortInput rxDFLatency:stats
field count 0
field mean nan
field stddev nan
field min nan
field max nan
field sum 0
field sqrsum 0
attr interpolationmode linear
attr source timestampAge(rxDF)
attr title "End-to-end latency of data frames, stats"
attr unit s
scalar Busoff_test1.Victim.canNodePort.canPortOutput txEF:count 1
attr source txEF
attr title "sent errors, count"
scalar Busoff_test1.Victim.canNodePort.canPortOutput txRF:count 0
attr source txRF
attr title "sent remote frames, count"
scalar Busoff_test1.Victim.canNodePort.canPortOutput txDF:count 1
attr source txDF
attr title "sent data frames, count"
scalar Busoff_test1.Victim.canNodePort.canPortOutput rxEF:count 1
attr source rxEF
attr title "receive errors, count"
scalar Busoff_test1.Victim.bufferIn[0] txPk:count 0
attr interpolationmode none
attr source txPk
attr title "TX Packets, count"
scalar Busoff_test1.Victim.bufferIn[0] txPk:sum(packetBytes) 0
attr interpolationmode none
attr source txPk
attr title "TX Packets, sum(packetBytes)"
scalar Busoff_test1.Victim.bufferIn[0] rxPk:count 0
attr interpolationmode none
attr source rxPk
attr title "RX Packets, count"
scalar Busoff_test1.Victim.bufferIn[0] rxPk:sum(packetBytes) 0
attr interpolationmode none
attr source rxPk
attr title "RX Packets, sum(packetBytes)"
statistic Busoff_test1.Victim.bufferIn[0] size:stats
field count 0
field mean nan
field stddev nan
field min nan
field max nan
field sum 0
field sqrsum 0
attr interpolationmode sample-hold
attr source size
attr title "Queue Size, stats"
attr unit B
statistic Busoff_test1.Victim.bufferIn[0] length:stats
field count 0
field mean nan
field stddev nan
field min nan
field max nan
field sum 0
field sqrsum 0
attr interpolationmode sample-hold
attr source length
attr title "Queue Length, stats"
attr unit packets
scalar Busoff_test1.Victim.bufferOut txPk:count 1
attr interpolationmode none
attr source txPk
attr title "TX Packets, count"
scalar Busoff_test1.Victim.bufferOut txPk:sum(packetBytes) 10
attr interpolationmode none
attr source txPk
attr title "TX Packets, sum(packetBytes)"
scalar Busoff_test1.Victim.bufferOut rxPk:count 3
attr interpolationmode none
attr source rxPk
attr title "RX Packets, count"
scalar Busoff_test1.Victim.bufferOut rxPk:sum(packetBytes) 30
attr interpolationmode none
attr source rxPk
attr title "RX Packets, sum(packetBytes)"
statistic Busoff_test1.Victim.bufferOut size:stats
field count 1
field mean 10
field stddev nan
field min 10
field max 10
field sum 10
field sqrsum 100
attr interpolationmode sample-hold
attr source size
attr title "Queue Size, stats"
attr unit B
statistic Busoff_test1.Victim.bufferOut length:stats
field count 1
field mean 1
field stddev nan
field min 1
field max 1
field sum 1
field sqrsum 1
attr interpolationmode sample-hold
attr source length
attr title "Queue Length, stats"
attr unit packets
scalar Busoff_test1.Victim.sourceApp[0] txRF:count 0
attr source txRF
attr title "source app remote frame, count"
scalar Busoff_test1.Victim.sourceApp[0] txDF:count 1
attr source txDF
attr title "source app data frame, count"
statistic Busoff_test1.Victim.sinkApp[0] rxRFPayloadLatency:stats
field count 0
field mean nan
field stddev nan
field min nan
field max nan
field sum 0
field sqrsum 0
attr interpolationmode linear
attr source timestampAge(rxRFPayload)
attr title "End-to-end latency of remote frame payload, stats"
attr unit s
statistic Busoff_test1.Victim.sinkApp[0] rxRFPayloadLatency:histogram
field count 0
field mean nan
field stddev nan
field min nan
field max nan
field sum 0
field sqrsum 0
attr interpolationmode linear
attr source timestampAge(rxRFPayload)
attr title "End-to-end latency of remote frame payload, histogram"
attr unit s
bin	-inf	0
bin	0	0
bin	1	0
statistic Busoff_test1.Victim.sinkApp[0] rxDFPayloadLatency:stats
field count 0
field mean nan
field stddev nan
field min nan
field max nan
field sum 0
field sqrsum 0
attr interpolationmode linear
attr source timestampAge(rxDFPayload)
attr title "End-to-end latency of data frame payload, stats"
attr unit s
statistic Busoff_test1.Victim.sinkApp[0] rxDFPayloadLatency:histogram
field count 0
field mean nan
field stddev nan
field min nan
field max nan
field sum 0
field sqrsum 0
attr interpolationmode linear
attr source timestampAge(rxDFPayload)
attr title "End-to-end latency of data frame payload, histogram"
attr unit s
bin	-inf	0
bin	0	0
bin	1	0
scalar Busoff_test1.Victim.sinkApp[0] rxRF:count 0
attr source rxRF
attr title "sink app remote frame, count"
statistic Busoff_test1.Victim.sinkApp[0] rxRFLatency:stats
field count 0
field mean nan
field stddev nan
field min nan
field max nan
field sum 0
field sqrsum 0
attr interpolationmode linear
attr source timestampAge(rxRF)
attr title "End-to-end latency of remote frames, stats"
attr unit s
scalar Busoff_test1.Victim.sinkApp[0] rxDF:count 0
attr source rxDF
attr title "sink app data frame, count"
statistic Busoff_test1.Victim.sinkApp[0] rxDFLatency:stats
field count 0
field mean nan
field stddev nan
field min nan
field max nan
field sum 0
field sqrsum 0
attr interpolationmode linear
attr source timestampAge(rxDF)
attr title "End-to-end latency of data frames, stats"
attr unit s
statistic Busoff_test1.Victim.canClock clockDrift:stats
field count 2
field mean 0
field stddev 0
field min 0
field max 0
field sum 0
field sqrsum 0
attr interpolationmode linear
attr source clockDrift
attr title "clockDrift, stats"
attr unit s
statistic Busoff_test1.Adversary.canNodePort.canPortInput rxRFPayloadLatency:stats
field count 0
field mean nan
field stddev nan
field min nan
field max nan
field sum 0
field sqrsum 0
attr interpolationmode linear
attr source timestampAge(rxRFPayload)
attr title "End-to-end latency of remote frame payload, stats"
attr unit s
statistic Busoff_test1.Adversary.canNodePort.canPortInput rxDFPayloadLatency:stats
field count 0
field mean nan
field stddev nan
field min nan
field max nan
field sum 0
field sqrsum 0
attr interpolationmode linear
attr source timestampAge(rxDFPayload)
attr title "End-to-end latency of data frame payload, stats"
attr unit s
scalar Busoff_test1.Adversary.canNodePort.canPortInput rxRF:count 0
attr source rxRF
attr title "complete remote frames received, count"
statistic Busoff_test1.Adversary.canNodePort.canPortInput rxRFLatency:stats
field count 0
field mean nan
field stddev nan
field min nan
field max nan
field sum 0
field sqrsum 0
attr interpolationmode linear
attr source timestampAge(rxRF)
attr title "End-to-end latency of remote frames, stats"
attr unit s
scalar Busoff_test1.Adversary.canNodePort.canPortInput rxDF:count 0
attr source rxDF
attr title "complete data frames received, count"
statistic Busoff_test1.Adversary.canNodePort.canPortInput rxDFLatency:stats
field count 0
field mean nan
field stddev nan
field min nan
field max nan
field sum 0
field sqrsum 0
attr interpolationmode linear
attr source timestampAge(rxDF)
attr title "End-to-end latency of data frames, stats"
attr unit s
scalar Busoff_test1.Adversary.canNodePort.canPortOutput txEF:count 0
attr source txEF
attr title "sent errors, count"
scalar Busoff_test1.Adversary.canNodePort.canPortOutput txRF:count 0
attr source txRF
attr title "sent remote frames, count"
scalar Busoff_test1.Adversary.canNodePort.canPortOutput txDF:count 1
attr source txDF
attr title "sent data frames, count"
scalar Busoff_test1.Adversary.canNodePort.canPortOutput rxEF:count 2
attr source rxEF
attr title "receive errors, count"
scalar Busoff_test1.Adversary.bufferIn[0] txPk:count 0
attr interpolationmode none
attr source txPk
attr title "TX Packets, count"
scalar Busoff_test1.Adversary.bufferIn[0] txPk:sum(packetBytes) 0
attr interpolationmode none
attr source txPk
attr title "TX Packets, sum(packetBytes)"
scalar Busoff_test1.Adversary.bufferIn[0] rxPk:count 0
attr interpolationmode none
attr source rxPk
attr title "RX Packets, count"
scalar Busoff_test1.Adversary.bufferIn[0] rxPk:sum(packetBytes) 0
attr interpolationmode none
attr source rxPk
attr title "RX Packets, sum(packetBytes)"
statistic Busoff_test1.Adversary.bufferIn[0] size:stats
field count 0
field mean nan
field stddev nan
field min nan
field max nan
field sum 0
field sqrsum 0
attr interpolationmode sample-hold
attr source size
attr title "Queue Size, stats"
attr unit B
statistic Busoff_test1.Adversary.bufferIn[0] length:stats
field count 0
field mean nan
field stddev nan
field min nan
field max nan
field sum 0
field sqrsum 0
attr interpolationmode sample-hold
attr source length
attr title "Queue Length, stats"
attr unit packets
scalar Busoff_test1.Adversary.bufferOut txPk:count 1
attr interpolationmode none
attr source txPk
attr title "TX Packets, count"
scalar Busoff_test1.Adversary.bufferOut txPk:sum(packetBytes) 9
attr interpolationmode none
attr source txPk
attr title "TX Packets, sum(packetBytes)"
scalar Busoff_test1.Adversary.bufferOut rxPk:count 2
attr interpolationmode none
attr source rxPk
attr title "RX Packets, count"
scalar Busoff_test1.Adversary.bufferOut rxPk:sum(packetBytes) 18
attr interpolationmode none
attr source rxPk
attr title "RX Packets, sum(packetBytes)"
statistic Busoff_test1.Adversary.bufferOut size:stats
field count 1
field mean 9
field stddev nan
field min 9
field max 9
field sum 9
field sqrsum 81
attr interpolationmode sample-hold
attr source size
attr title "Queue Size, stats"
attr unit B
statistic Busoff_test1.Adversary.bufferOut length:stats
field count 1
field mean 1
field stddev nan
field min 1
field max 1
field sum 1
field sqrsum 1
attr interpolationmode sample-hold
attr source length
attr title "Queue Length, stats"
attr unit packets
scalar Busoff_test1.Adversary.sourceApp[0] txRF:count 0
attr source txRF
attr title "source app remote frame, count"
scalar Busoff_test1.Adversary.sourceApp[0] txDF:count 1
attr source txDF
attr title "source app data frame, count"
statistic Busoff_test1.Adversary.sinkApp[0] rxRFPayloadLatency:stats
field count 0
field mean nan
field stddev nan
field min nan
field max nan
field sum 0
field sqrsum 0
attr interpolationmode linear
attr source timestampAge(rxRFPayload)
attr title "End-to-end latency of remote frame payload, stats"
attr unit s
statistic Busoff_test1.Adversary.sinkApp[0] rxRFPayloadLatency:histogram
field count 0
field mean nan
field stddev nan
field min nan
field max nan
field sum 0
field sqrsum 0
attr interpolationmode linear
attr source timestampAge(rxRFPayload)
attr title "End-to-end latency of remote frame payload, histogram"
attr unit s
bin	-inf	0
bin	0	0
bin	1	0
statistic Busoff_test1.Adversary.sinkApp[0] rxDFPayloadLatency:stats
field count 0
field mean nan
field stddev nan
field min nan
field max nan
field sum 0
field sqrsum 0
attr interpolationmode linear
attr source timestampAge(rxDFPayload)
attr title "End-to-end latency of data frame payload, stats"
attr unit s
statistic Busoff_test1.Adversary.sinkApp[0] rxDFPayloadLatency:histogram
field count 0
field mean nan
field stddev nan
field min nan
field max nan
field sum 0
field sqrsum 0
attr interpolationmode linear
attr source timestampAge(rxDFPayload)
attr title "End-to-end latency of data frame payload, histogram"
attr unit s
bin	-inf	0
bin	0	0
bin	1	0
scalar Busoff_test1.Adversary.sinkApp[0] rxRF:count 0
attr source rxRF
attr title "sink app remote frame, count"
statistic Busoff_test1.Adversary.sinkApp[0] rxRFLatency:stats
field count 0
field mean nan
field stddev nan
field min nan
field max nan
field sum 0
field sqrsum 0
attr interpolationmode linear
attr source timestampAge(rxRF)
attr title "End-to-end latency of remote frames, stats"
attr unit s
scalar Busoff_test1.Adversary.sinkApp[0] rxDF:count 0
attr source rxDF
attr title "sink app data frame, count"
statistic Busoff_test1.Adversary.sinkApp[0] rxDFLatency:stats
field count 0
field mean nan
field stddev nan
field min nan
field max nan
field sum 0
field sqrsum 0
attr interpolationmode linear
attr source timestampAge(rxDF)
attr title "End-to-end latency of data frames, stats"
attr unit s
statistic Busoff_test1.Adversary.canClock clockDrift:stats
field count 2
field mean 0
field stddev 0
field min 0
field max 0
field sum 0
field sqrsum 0
attr interpolationmode linear
attr source clockDrift
attr title "clockDrift, stats"
attr unit s
statistic Busoff_test1.Receiver.canNodePort.canPortInput rxRFPayloadLatency:stats
field count 0
field mean nan
field stddev nan
field min nan
field max nan
field sum 0
field sqrsum 0
attr interpolationmode linear
attr source timestampAge(rxRFPayload)
attr title "End-to-end latency of remote frame payload, stats"
attr unit s
statistic Busoff_test1.Receiver.canNodePort.canPortInput rxDFPayloadLatency:stats
field count 0
field mean nan
field stddev nan
field min nan
field max nan
field sum 0
field sqrsum 0
attr interpolationmode linear
attr source timestampAge(rxDFPayload)
attr title "End-to-end latency of data frame payload, stats"
attr unit s
scalar Busoff_test1.Receiver.canNodePort.canPortInput rxRF:count 0
attr source rxRF
attr title "complete remote frames received, count"
statistic Busoff_test1.Receiver.canNodePort.canPortInput rxRFLatency:stats
field count 0
field mean nan
field stddev nan
field min nan
field max nan
field sum 0
field sqrsum 0
attr interpolationmode linear
attr source timestampAge(rxRF)
attr title "End-to-end latency of remote frames, stats"
attr unit s
scalar Busoff_test1.Receiver.canNodePort.canPortInput rxDF:count 0
attr source rxDF
attr title "complete data frames received, count"
statistic Busoff_test1.Receiver.canNodePort.canPortInput rxDFLatency:stats
field count 0
field mean nan
field stddev nan
field min nan
field max nan
field sum 0
field sqrsum 0
attr interpolationmode linear
attr source timestampAge(rxDF)
attr title "End-to-end latency of data frames, stats"
attr unit s
scalar Busoff_test1.Receiver.canNodePort.canPortOutput txEF:count 0
attr source txEF
attr title "sent errors, count"
scalar Busoff_test1.Receiver.canNodePort.canPortOutput txRF:count 0
attr source txRF
attr title "sent remote frames, count"
scalar Busoff_test1.Receiver.canNodePort.canPortOutput txDF:count 0
attr source txDF
attr title "sent data frames, count"
scalar Busoff_test1.Receiver.canNodePort.canPortOutput rxEF:count 2
attr source rxEF
attr title "receive errors, count"
scalar Busoff_test1.Receiver.bufferIn[0] txPk:count 0
attr interpolationmode none
attr source txPk
attr title "TX Packets, count"
scalar Busoff_test1.Receiver.bufferIn[0] txPk:sum(packetBytes) 0
attr interpolationmode none
attr source txPk
attr title "TX Packets, sum(packetBytes)"
scalar Busoff_test1.Receiver.bufferIn[0] rxPk:count 0
attr interpolationmode none
attr source rxPk
attr title "RX Packets, count"
scalar Busoff_test1.Receiver.bufferIn[0] rxPk:sum(packetBytes) 0
attr interpolationmode none
attr source rxPk
attr title "RX Packets, sum(packetBytes)"
statistic Busoff_test1.Receiver.bufferIn[0] size:stats
field count 0
field mean nan
field stddev nan
field min nan
field max nan
field sum 0
field sqrsum 0
attr interpolationmode sample-hold
attr source size
attr title "Queue Size, stats"
attr unit B
statistic Busoff_test1.Receiver.bufferIn[0] length:stats
field count 0
field mean nan
field stddev nan
field min nan
field max nan
field sum 0
field sqrsum 0
attr interpolationmode sample-hold
attr source length
attr title "Queue Length, stats"
attr unit packets
scalar Busoff_test1.Receiver.bufferOut txPk:count 0
attr interpolationmode none
attr source txPk
attr title "TX Packets, count"
scalar Busoff_test1.Receiver.bufferOut txPk:sum(packetBytes) 0
attr interpolationmode none
attr source txPk
attr title "TX Packets, sum(packetBytes)"
scalar Busoff_test1.Receiver.bufferOut rxPk:count 0
attr interpolationmode none
attr source rxPk
attr title "RX Packets, count"
scalar Busoff_test1.Receiver.bufferOut rxPk:sum(packetBytes) 0
attr interpolationmode none
attr source rxPk
attr title "RX Packets, sum(packetBytes)"
statistic Busoff_test1.Receiver.bufferOut size:stats
field count 0
field mean nan
field stddev nan
field min nan
field max nan
field sum 0
field sqrsum 0
attr interpolationmode sample-hold
attr source size
attr title "Queue Size, stats"
attr unit B
statistic Busoff_test1.Receiver.bufferOut length:stats
field count 0
field mean nan
field stddev nan
field min nan
field max nan
field sum 0
field sqrsum 0
attr interpolationmode sample-hold
attr source length
attr title "Queue Length, stats"
attr unit packets
scalar Busoff_test1.Receiver.sourceApp[0] txRF:count 0
attr source txRF
attr title "source app remote frame, count"
scalar Busoff_test1.Receiver.sourceApp[0] txDF:count 0
attr source txDF
attr title "source app data frame, count"
statistic Busoff_test1.Receiver.sinkApp[0] rxRFPayloadLatency:stats
field count 0
field mean nan
field stddev nan
field min nan
field max nan
field sum 0
field sqrsum 0
attr interpolationmode linear
attr source timestampAge(rxRFPayload)
attr title "End-to-end latency of remote frame payload, stats"
attr unit s
statistic Busoff_test1.Receiver.sinkApp[0] rxRFPayloadLatency:histogram
field count 0
field mean nan
field stddev nan
field min nan
field max nan
field sum 0
field sqrsum 0
attr interpolationmode linear
attr source timestampAge(rxRFPayload)
attr title "End-to-end latency of remote frame payload, histogram"
attr unit s
bin	-inf	0
bin	0	0
bin	1	0
statistic Busoff_test1.Receiver.sinkApp[0] rxDFPayloadLatency:stats
field count 0
field mean nan
field stddev nan
field min nan
field max nan
field sum 0
field sqrsum 0
attr interpolationmode linear
attr source timestampAge(rxDFPayload)
attr title "End-to-end latency of data frame payload, stats"
attr unit s
statistic Busoff_test1.Receiver.sinkApp[0] rxDFPayloadLatency:histogram
field count 0
field mean nan
field stddev nan
field min nan
field max nan
field sum 0
field sqrsum 0
attr interpolationmode linear
attr source timestampAge(rxDFPayload)
attr title "End-to-end latency of data frame payload, histogram"
attr unit s
bin	-inf	0
bin	0	0
bin	1	0
scalar Busoff_test1.Receiver.sinkApp[0] rxRF:count 0
attr source rxRF
attr title "sink app remote frame, count"
statistic Busoff_test1.Receiver.sinkApp[0] rxRFLatency:stats
field count 0
field mean nan
field stddev nan
field min nan
field max nan
field sum 0
field sqrsum 0
attr interpolationmode linear
attr source timestampAge(rxRF)
attr title "End-to-end latency of remote frames, stats"
attr unit s
scalar Busoff_test1.Receiver.sinkApp[0] rxDF:count 0
attr source rxDF
attr title "sink app data frame, count"
statistic Busoff_test1.Receiver.sinkApp[0] rxDFLatency:stats
field count 0
field mean nan
field stddev nan
field min nan
field max nan
field sum 0
field sqrsum 0
attr interpolationmode linear
attr source timestampAge(rxDF)
attr title "End-to-end latency of data frames, stats"
attr unit s
statistic Busoff_test1.Receiver.canClock clockDrift:stats
field count 1
field mean 0
field stddev nan
field min 0
field max 0
field sum 0
field sqrsum 0
attr interpolationmode linear
attr source clockDrift
attr title "clockDrift, stats"
attr unit s

