version 2
run General-0-20210111-16:29:12-10892
attr configname General
attr datetime 20210111-16:29:12
attr experiment General
attr inifile omnetpp.ini
attr iterationvars ""
attr iterationvarsf ""
attr measurement ""
attr network Busoff_test1
attr processid 10892
attr repetition 0
attr replication #0
attr resultdir results
attr runnumber 0
attr seedset 0
param **.bandwidth 0.1Mbps
param **.bitStuffingPercentage 0
param **.version "\"2.0B\""
param Busoff_test1.Victim.sourceApp[0].idDataFrames "\"2\""
param Busoff_test1.Victim.sourceApp[0].periodicityDataFrames "\"0.700\""
param Busoff_test1.Victim.sourceApp[0].dataLengthDataFrames "\"1\""
param Busoff_test1.Victim.sourceApp[0].initialDataFrameOffset "\"0.700\""
param Busoff_test1.Adversary.sourceApp[0].idDataFrames "\"2\""
param Busoff_test1.Adversary.sourceApp[0].periodicityDataFrames "\"0.700\""
param Busoff_test1.Adversary.sourceApp[0].dataLengthDataFrames "\"0\""
param Busoff_test1.Adversary.sourceApp[0].initialDataFrameOffset "\"0.700\""
param Busoff_test1.Receiver.bufferIn[0].idIncomingFrames "\"2\""

vector 0 Busoff_test1.Victim.canClock clockDrift:vector ETV
attr interpolationmode linear
attr source clockDrift
attr title "clockDrift, vector"
attr unit s
vector 1 Busoff_test1.Adversary.canClock clockDrift:vector ETV
attr interpolationmode linear
attr source clockDrift
attr title "clockDrift, vector"
attr unit s
vector 2 Busoff_test1.Receiver.canClock clockDrift:vector ETV
attr interpolationmode linear
attr source clockDrift
attr title "clockDrift, vector"
attr unit s
vector 3 Busoff_test1.Victim.bufferOut rxPk:vector(packetBytes) ETV
attr interpolationmode none
attr source rxPk
attr title "RX Packets, vector(packetBytes)"
vector 4 Busoff_test1.Victim.bufferOut length:vector ETV
attr interpolationmode sample-hold
attr source length
attr title "Queue Length, vector"
attr unit packets
vector 5 Busoff_test1.Victim.bufferOut size:vector ETV
attr interpolationmode sample-hold
attr source size
attr title "Queue Size, vector"
attr unit B
vector 6 Busoff_test1.bus.canBusLogic arbitrationLength:vector ETV
attr interpolationmode sample-hold
attr source arbitrationLength
attr title "Arbitration Length, vector"
attr unit packets
vector 7 Busoff_test1.Adversary.bufferOut rxPk:vector(packetBytes) ETV
attr interpolationmode none
attr source rxPk
attr title "RX Packets, vector(packetBytes)"
vector 8 Busoff_test1.Adversary.bufferOut length:vector ETV
attr interpolationmode sample-hold
attr source length
attr title "Queue Length, vector"
attr unit packets
vector 9 Busoff_test1.Adversary.bufferOut size:vector ETV
attr interpolationmode sample-hold
attr source size
attr title "Queue Size, vector"
attr unit B
vector 10 Busoff_test1.Adversary.bufferOut txPk:vector(packetBytes) ETV
attr interpolationmode none
attr source txPk
attr title "TX Packets, vector(packetBytes)"
0	0	0	0
0	1	0.7	0
1	0	0	0
1	2	0.7	0
2	0	0	0
3	3	0.7	10
3	3	0.7	10
3	5	0.70001	10
3	69	0.70057	10
3	133	0.70113	10
3	197	0.70169	10
3	261	0.70225	10
3	325	0.70281	10
3	389	0.70337	10
3	453	0.70393	10
3	517	0.70449	10
3	581	0.70505	10
3	645	0.70561	10
3	709	0.70617	10
3	773	0.70673	10
3	837	0.70729	10
3	901	0.70785	10
3	965	0.70841	10
3	1015	0.70897	10
4	3	0.7	1
5	3	0.7	10
6	3	0.7	1
6	4	0.7	2
6	66	0.70056	1
6	67	0.70056	2
6	130	0.70112	1
6	131	0.70112	2
6	194	0.70168	1
6	195	0.70168	2
6	258	0.70224	1
6	259	0.70224	2
6	322	0.7028	1
6	323	0.7028	2
6	386	0.70336	1
6	387	0.70336	2
6	450	0.70392	1
6	451	0.70392	2
6	514	0.70448	1
6	515	0.70448	2
6	578	0.70504	1
6	579	0.70504	2
6	642	0.7056	1
6	643	0.7056	2
6	706	0.70616	1
6	707	0.70616	2
6	770	0.70672	1
6	771	0.70672	2
6	834	0.70728	1
6	835	0.70728	2
6	898	0.70784	1
6	899	0.70784	2
6	962	0.7084	1
6	963	0.7084	2
6	1013	0.70896	1
6	1014	0.70896	2
6	1025	0.70964	0
6	1041	0.70965	1
6	1054	0.71033	0
6	1070	0.71034	1
6	1083	0.71102	0
6	1099	0.71103	1
6	1112	0.71171	0
6	1128	0.71172	1
6	1141	0.7124	0
6	1157	0.71241	1
6	1170	0.71309	0
6	1186	0.7131	1
6	1199	0.71378	0
6	1215	0.71379	1
6	1228	0.71447	0
6	1244	0.71448	1
6	1257	0.71516	0
6	1273	0.71517	1
6	1286	0.71585	0
6	1302	0.71586	1
6	1315	0.71654	0
6	1331	0.71655	1
6	1344	0.71723	0
6	1360	0.71724	1
6	1373	0.71792	0
6	1389	0.71793	1
6	1402	0.71861	0
6	1418	0.71862	1
6	1431	0.7193	0
6	1447	0.71931	1
7	4	0.7	9
7	4	0.7	9
7	1041	0.70965	9
7	1070	0.71034	9
7	1099	0.71103	9
7	1128	0.71172	9
7	1157	0.71241	9
7	1186	0.7131	9
7	1215	0.71379	9
7	1244	0.71448	9
7	1273	0.71517	9
7	1302	0.71586	9
7	1331	0.71655	9
7	1360	0.71724	9
7	1389	0.71793	9
7	1418	0.71862	9
7	1447	0.71931	9
8	4	0.7	1
8	1025	0.70964	0
8	1041	0.70965	1
8	1054	0.71033	0
8	1070	0.71034	1
8	1083	0.71102	0
8	1099	0.71103	1
8	1112	0.71171	0
8	1128	0.71172	1
8	1141	0.7124	0
8	1157	0.71241	1
8	1170	0.71309	0
8	1186	0.7131	1
8	1199	0.71378	0
8	1215	0.71379	1
8	1228	0.71447	0
8	1244	0.71448	1
8	1257	0.71516	0
8	1273	0.71517	1
8	1286	0.71585	0
8	1302	0.71586	1
8	1315	0.71654	0
8	1331	0.71655	1
8	1344	0.71723	0
8	1360	0.71724	1
8	1373	0.71792	0
8	1389	0.71793	1
8	1402	0.71861	0
8	1418	0.71862	1
8	1431	0.7193	0
8	1447	0.71931	1
9	4	0.7	9
9	1025	0.70964	0
9	1041	0.70965	9
9	1054	0.71033	0
9	1070	0.71034	9
9	1083	0.71102	0
9	1099	0.71103	9
9	1112	0.71171	0
9	1128	0.71172	9
9	1141	0.7124	0
9	1157	0.71241	9
9	1170	0.71309	0
9	1186	0.7131	9
9	1199	0.71378	0
9	1215	0.71379	9
9	1228	0.71447	0
9	1244	0.71448	9
9	1257	0.71516	0
9	1273	0.71517	9
9	1286	0.71585	0
9	1302	0.71586	9
9	1315	0.71654	0
9	1331	0.71655	9
9	1344	0.71723	0
9	1360	0.71724	9
9	1373	0.71792	0
9	1389	0.71793	9
9	1402	0.71861	0
9	1418	0.71862	9
9	1431	0.7193	0
9	1447	0.71931	9
10	5	0.70001	9
10	69	0.70057	9
10	133	0.70113	9
10	197	0.70169	9
10	261	0.70225	9
10	325	0.70281	9
10	389	0.70337	9
10	453	0.70393	9
10	517	0.70449	9
10	581	0.70505	9
10	645	0.70561	9
10	709	0.70617	9
10	773	0.70673	9
10	837	0.70729	9
10	901	0.70785	9
10	965	0.70841	9
10	1015	0.70897	9
10	1043	0.70966	9
10	1072	0.71035	9
10	1101	0.71104	9
10	1130	0.71173	9
10	1159	0.71242	9
10	1188	0.71311	9
10	1217	0.7138	9
10	1246	0.71449	9
10	1275	0.71518	9
10	1304	0.71587	9
10	1333	0.71656	9
10	1362	0.71725	9
10	1391	0.71794	9
10	1420	0.71863	9
10	1449	0.71932	9
6	1455	0.71999	0
8	1455	0.71999	0
9	1455	0.71999	0
0	1463	1.4	0

