file 14676 1610252911                                           
version 2
run General-0-20210110-09:56:42-3180
attr configname General
attr datetime 20210110-09:56:42
attr experiment General
attr inifile omnetpp.ini
attr iterationvars ""
attr iterationvarsf ""
attr measurement ""
attr network Busoff_test1
attr processid 3180
attr repetition 0
attr replication #0
attr resultdir results
attr runnumber 0
attr seedset 0
param **.bandwidth 0.1Mbps
param **.bitStuffingPercentage 0
param **.version "\"2.0B\""
param Busoff_test1.Victim.sourceApp[0].idDataFrames "\"2\""
param Busoff_test1.Victim.sourceApp[0].periodicityDataFrames "\"0.700\""
param Busoff_test1.Victim.sourceApp[0].dataLengthDataFrames "\"1\""
param Busoff_test1.Victim.sourceApp[0].initialDataFrameOffset "\"0.700\""
param Busoff_test1.Adversary.sourceApp[0].idDataFrames "\"2\""
param Busoff_test1.Adversary.sourceApp[0].periodicityDataFrames "\"0.700\""
param Busoff_test1.Adversary.sourceApp[0].dataLengthDataFrames "\"0\""
param Busoff_test1.Adversary.sourceApp[0].initialDataFrameOffset "\"0.700\""
param Busoff_test1.Receiver.bufferIn[0].idIncomingFrames "\"2\""

vector 0 Busoff_test1.Victim.canClock clockDrift:vector ETV
attr interpolationmode linear
attr source clockDrift
attr title "clockDrift, vector"
attr unit s
vector 1 Busoff_test1.Adversary.canClock clockDrift:vector ETV
attr interpolationmode linear
attr source clockDrift
attr title "clockDrift, vector"
attr unit s
vector 2 Busoff_test1.Receiver.canClock clockDrift:vector ETV
attr interpolationmode linear
attr source clockDrift
attr title "clockDrift, vector"
attr unit s
vector 3 Busoff_test1.Victim.bufferOut rxPk:vector(packetBytes) ETV
attr interpolationmode none
attr source rxPk
attr title "RX Packets, vector(packetBytes)"
vector 4 Busoff_test1.Victim.bufferOut length:vector ETV
attr interpolationmode sample-hold
attr source length
attr title "Queue Length, vector"
attr unit packets
vector 5 Busoff_test1.Victim.bufferOut size:vector ETV
attr interpolationmode sample-hold
attr source size
attr title "Queue Size, vector"
attr unit B
vector 6 Busoff_test1.bus.canBusLogic arbitrationLength:vector ETV
attr interpolationmode sample-hold
attr source arbitrationLength
attr title "Arbitration Length, vector"
attr unit packets
vector 7 Busoff_test1.Adversary.bufferOut rxPk:vector(packetBytes) ETV
attr interpolationmode none
attr source rxPk
attr title "RX Packets, vector(packetBytes)"
vector 8 Busoff_test1.Adversary.bufferOut length:vector ETV
attr interpolationmode sample-hold
attr source length
attr title "Queue Length, vector"
attr unit packets
vector 9 Busoff_test1.Adversary.bufferOut size:vector ETV
attr interpolationmode sample-hold
attr source size
attr title "Queue Size, vector"
attr unit B
vector 10 Busoff_test1.Adversary.bufferOut txPk:vector(packetBytes) ETV
attr interpolationmode none
attr source txPk
attr title "TX Packets, vector(packetBytes)"
vector 11 Busoff_test1.Victim.bufferOut txPk:vector(packetBytes) ETV
attr interpolationmode none
attr source txPk
attr title "TX Packets, vector(packetBytes)"
vector 12 Busoff_test1.Receiver.canNodePort.canPortInput rxDFLatency:vector ETV
attr interpolationmode linear
attr source timestampAge(rxDF)
attr title "End-to-end latency of data frames, vector"
attr unit s
vector 13 Busoff_test1.Receiver.canNodePort.canPortInput rxDFPayloadLatency:vector ETV
attr interpolationmode linear
attr source timestampAge(rxDFPayload)
attr title "End-to-end latency of data frame payload, vector"
attr unit s
vector 14 Busoff_test1.Receiver.bufferIn[0] rxPk:vector(packetBytes) ETV
attr interpolationmode none
attr source rxPk
attr title "RX Packets, vector(packetBytes)"
vector 15 Busoff_test1.Receiver.bufferIn[0] txPk:vector(packetBytes) ETV
attr interpolationmode none
attr source txPk
attr title "TX Packets, vector(packetBytes)"
vector 16 Busoff_test1.Receiver.sinkApp[0] rxDFLatency:vector ETV
attr interpolationmode linear
attr source timestampAge(rxDF)
attr title "End-to-end latency of data frames, vector"
attr unit s
vector 17 Busoff_test1.Receiver.sinkApp[0] rxDFPayloadLatency:vector ETV
attr interpolationmode linear
attr source timestampAge(rxDFPayload)
attr title "End-to-end latency of data frame payload, vector"
attr unit s
0	4297 275 0 1983 0 13.3 20 0 0 0 0
1	4572 275 0 1984 0 13.3 20 0 0 0 0
2	4847 9 0 0 0 0 1 0 0 0 0
3	4856 1221 3 1987 0.7 13.30001 73 10 10 730 7300
4	6077 594 3 1985 0.7 13.3 37 0 1 19 19
5	6671 613 3 1985 0.7 13.3 37 0 10 190 1900
6	7284 2073 3 1992 0.7 13.30068 125 0 2 123 193
7	9357 532 4 1986 0.7 13.3 38 9 9 342 3078
8	9889 613 4 1992 0.7 13.30068 38 0 1 19 19
9	10502 613 4 1992 0.7 13.30068 38 0 9 171 1539
10	11115 651 5 1987 0.70001 13.30001 35 9 9 315 2835
11	11766 364 1049 1967 0.70973 12.60077 18 10 10 180 1800
12	12130 454 1062 1980 0.71123 12.60227 18 0.00227 0.01123 0.04982 0.0002137122
13	12584 454 1062 1980 0.71123 12.60227 18 0.00227 0.01123 0.04982 0.0002137122
14	13038 364 1063 1981 0.71123 12.60227 18 10 10 180 1800
15	13402 364 1063 1981 0.71123 12.60227 18 10 10 180 1800
16	13766 454 1064 1982 0.71123 12.60227 18 0.00227 0.01123 0.04982 0.0002137122
17	14220 454 1064 1982 0.71123 12.60227 18 0.00227 0.01123 0.04982 0.0002137122

