version 2
run General-0-20201225-23:51:56-16640
attr configname General
attr datetime 20201225-23:51:56
attr experiment General
attr inifile omnetpp.ini
attr iterationvars ""
attr iterationvarsf ""
attr measurement ""
attr network Busoff_test1
attr processid 16640
attr repetition 0
attr replication #0
attr resultdir results
attr runnumber 0
attr seedset 0
param **.bandwidth 0.1Mbps
param **.bitStuffingPercentage 0
param **.version "\"2.0B\""
param Busoff_test1.Victim.sourceApp[0].idDataFrames "\"2\""
param Busoff_test1.Victim.sourceApp[0].periodicityDataFrames "\"0.700\""
param Busoff_test1.Victim.sourceApp[0].dataLengthDataFrames "\"1\""
param Busoff_test1.Victim.sourceApp[0].initialDataFrameOffset "\"0.700\""
param Busoff_test1.Adversary.sourceApp[0].idDataFrames "\"2\""
param Busoff_test1.Adversary.sourceApp[0].periodicityDataFrames "\"0.700\""
param Busoff_test1.Adversary.sourceApp[0].dataLengthDataFrames "\"0\""
param Busoff_test1.Adversary.sourceApp[0].initialDataFrameOffset "\"0.700\""
param Busoff_test1.Receiver.bufferIn[0].idIncomingFrames "\"2\""

vector 0 Busoff_test1.Victim.canClock clockDrift:vector ETV
attr interpolationmode linear
attr source clockDrift
attr title "clockDrift, vector"
attr unit s
vector 1 Busoff_test1.Adversary.canClock clockDrift:vector ETV
attr interpolationmode linear
attr source clockDrift
attr title "clockDrift, vector"
attr unit s
vector 2 Busoff_test1.Receiver.canClock clockDrift:vector ETV
attr interpolationmode linear
attr source clockDrift
attr title "clockDrift, vector"
attr unit s
vector 3 Busoff_test1.Victim.bufferOut rxPk:vector(packetBytes) ETV
attr interpolationmode none
attr source rxPk
attr title "RX Packets, vector(packetBytes)"
vector 4 Busoff_test1.Victim.bufferOut length:vector ETV
attr interpolationmode sample-hold
attr source length
attr title "Queue Length, vector"
attr unit packets
vector 5 Busoff_test1.Victim.bufferOut size:vector ETV
attr interpolationmode sample-hold
attr source size
attr title "Queue Size, vector"
attr unit B
vector 6 Busoff_test1.bus.canBusLogic arbitrationLength:vector ETV
attr interpolationmode sample-hold
attr source arbitrationLength
attr title "Arbitration Length, vector"
attr unit packets
vector 7 Busoff_test1.Adversary.bufferOut rxPk:vector(packetBytes) ETV
attr interpolationmode none
attr source rxPk
attr title "RX Packets, vector(packetBytes)"
vector 8 Busoff_test1.Adversary.bufferOut length:vector ETV
attr interpolationmode sample-hold
attr source length
attr title "Queue Length, vector"
attr unit packets
vector 9 Busoff_test1.Adversary.bufferOut size:vector ETV
attr interpolationmode sample-hold
attr source size
attr title "Queue Size, vector"
attr unit B
vector 10 Busoff_test1.Adversary.bufferOut txPk:vector(packetBytes) ETV
attr interpolationmode none
attr source txPk
attr title "TX Packets, vector(packetBytes)"
0	0	0	0
0	1	0.7	0
1	0	0	0
1	2	0.7	0
2	0	0	0
3	3	0.7	10
3	3	0.7	10
3	5	0.70001	10
3	69	0.70057	10
3	133	0.70113	10
3	197	0.70169	10
3	261	0.70225	10
3	325	0.70281	10
3	389	0.70337	10
3	453	0.70393	10
3	517	0.70449	10
3	581	0.70505	10
3	645	0.70561	10
3	709	0.70617	10
3	773	0.70673	10
3	837	0.70729	10
3	901	0.70785	10
4	3	0.7	1
5	3	0.7	10
6	3	0.7	1
6	4	0.7	2
6	66	0.70056	1
6	67	0.70056	2
6	130	0.70112	1
6	131	0.70112	2
6	194	0.70168	1
6	195	0.70168	2
6	258	0.70224	1
6	259	0.70224	2
6	322	0.7028	1
6	323	0.7028	2
6	386	0.70336	1
6	387	0.70336	2
6	450	0.70392	1
6	451	0.70392	2
6	514	0.70448	1
6	515	0.70448	2
6	578	0.70504	1
6	579	0.70504	2
6	642	0.7056	1
6	643	0.7056	2
6	706	0.70616	1
6	707	0.70616	2
6	770	0.70672	1
6	771	0.70672	2
6	834	0.70728	1
6	835	0.70728	2
6	898	0.70784	1
6	899	0.70784	2
7	4	0.7	9
7	4	0.7	9
8	4	0.7	1
9	4	0.7	9
10	5	0.70001	9
10	69	0.70057	9
10	133	0.70113	9
10	197	0.70169	9
10	261	0.70225	9
10	325	0.70281	9
10	389	0.70337	9
10	453	0.70393	9
10	517	0.70449	9
10	581	0.70505	9
10	645	0.70561	9
10	709	0.70617	9
10	773	0.70673	9
10	837	0.70729	9
10	901	0.70785	9
vector 11 Busoff_test1.Receiver.canNodePort.canPortInput rxDFLatency:vector ETV
attr interpolationmode linear
attr source timestampAge(rxDF)
attr title "End-to-end latency of data frames, vector"
attr unit s
vector 12 Busoff_test1.Receiver.canNodePort.canPortInput rxDFPayloadLatency:vector ETV
attr interpolationmode linear
attr source timestampAge(rxDFPayload)
attr title "End-to-end latency of data frame payload, vector"
attr unit s
vector 13 Busoff_test1.Receiver.bufferIn[0] rxPk:vector(packetBytes) ETV
attr interpolationmode none
attr source rxPk
attr title "RX Packets, vector(packetBytes)"
vector 14 Busoff_test1.Receiver.bufferIn[0] txPk:vector(packetBytes) ETV
attr interpolationmode none
attr source txPk
attr title "TX Packets, vector(packetBytes)"
vector 15 Busoff_test1.Receiver.sinkApp[0] rxDFLatency:vector ETV
attr interpolationmode linear
attr source timestampAge(rxDF)
attr title "End-to-end latency of data frames, vector"
attr unit s
vector 16 Busoff_test1.Receiver.sinkApp[0] rxDFPayloadLatency:vector ETV
attr interpolationmode linear
attr source timestampAge(rxDFPayload)
attr title "End-to-end latency of data frame payload, vector"
attr unit s
vector 17 Busoff_test1.Victim.bufferOut txPk:vector(packetBytes) ETV
attr interpolationmode none
attr source txPk
attr title "TX Packets, vector(packetBytes)"
0	1068	1.4	0
0	1125	2.1	0
1	1069	1.4	0
1	1126	2.1	0
3	965	0.70841	10
3	1015	0.70897	10
3	1070	1.4	10
3	1070	1.4	10
3	1072	1.40001	10
3	1127	2.1	10
3	1127	2.1	10
3	1129	2.10001	10
4	1057	0.71116	0
4	1070	1.4	1
4	1114	1.4022	0
4	1127	2.1	1
4	1171	2.1022	0
5	1057	0.71116	0
5	1070	1.4	10
5	1114	1.4022	0
5	1127	2.1	10
5	1171	2.1022	0
6	962	0.7084	1
6	963	0.7084	2
6	1013	0.70896	1
6	1014	0.70896	2
6	1020	0.70964	0
6	1051	0.7104	1
6	1057	0.71116	0
6	1070	1.4	1
6	1071	1.4	2
6	1077	1.40068	0
6	1108	1.40144	1
6	1114	1.4022	0
6	1127	2.1	1
6	1128	2.1	2
6	1134	2.10068	0
6	1165	2.10144	1
6	1171	2.1022	0
7	1071	1.4	9
7	1071	1.4	9
7	1128	2.1	9
7	1128	2.1	9
8	1020	0.70964	0
8	1071	1.4	1
8	1077	1.40068	0
8	1128	2.1	1
8	1134	2.10068	0
9	1020	0.70964	0
9	1071	1.4	9
9	1077	1.40068	0
9	1128	2.1	9
9	1134	2.10068	0
10	965	0.70841	9
10	1015	0.70897	9
10	1072	1.40001	9
10	1129	2.10001	9
11	1033	0.71031	0.01031
11	1065	0.71191	0.01191
11	1090	1.40135	0.00135
11	1122	1.40295	0.00295
11	1147	2.10135	0.00135
12	1033	0.71031	0.01031
12	1065	0.71191	0.01191
12	1090	1.40135	0.00135
12	1122	1.40295	0.00295
12	1147	2.10135	0.00135
13	1034	0.71031	9
13	1066	0.71191	10
13	1091	1.40135	9
13	1123	1.40295	10
13	1148	2.10135	9
14	1034	0.71031	9
14	1066	0.71191	10
14	1091	1.40135	9
14	1123	1.40295	10
14	1148	2.10135	9
15	1035	0.71031	0.01031
15	1067	0.71191	0.01191
15	1092	1.40135	0.00135
15	1124	1.40295	0.00295
15	1149	2.10135	0.00135
16	1035	0.71031	0.01031
16	1067	0.71191	0.01191
16	1092	1.40135	0.00135
16	1124	1.40295	0.00295
16	1149	2.10135	0.00135
17	1052	0.71041	10
17	1109	1.40145	10
17	1166	2.10145	10
0	1182	2.8	0
0	1239	3.5	0
0	1296	4.2	0
1	1183	2.8	0
1	1240	3.5	0
1	1297	4.2	0
3	1184	2.8	10
3	1184	2.8	10
3	1186	2.80001	10
3	1241	3.5	10
3	1241	3.5	10
3	1243	3.50001	10
3	1298	4.2	10
3	1298	4.2	10
4	1184	2.8	1
4	1228	2.8022	0
4	1241	3.5	1
4	1285	3.5022	0
4	1298	4.2	1
5	1184	2.8	10
5	1228	2.8022	0
5	1241	3.5	10
5	1285	3.5022	0
5	1298	4.2	10
6	1184	2.8	1
6	1185	2.8	2
6	1191	2.80068	0
6	1222	2.80144	1
6	1228	2.8022	0
6	1241	3.5	1
6	1242	3.5	2
6	1248	3.50068	0
6	1279	3.50144	1
6	1285	3.5022	0
6	1298	4.2	1
6	1299	4.2	2
7	1185	2.8	9
7	1185	2.8	9
7	1242	3.5	9
7	1242	3.5	9
7	1299	4.2	9
7	1299	4.2	9
8	1185	2.8	1
8	1191	2.80068	0
8	1242	3.5	1
8	1248	3.50068	0
8	1299	4.2	1
9	1185	2.8	9
9	1191	2.80068	0
9	1242	3.5	9
9	1248	3.50068	0
9	1299	4.2	9
10	1186	2.80001	9
10	1243	3.50001	9
11	1179	2.10295	0.00295
11	1204	2.80135	0.00135
11	1236	2.80295	0.00295
11	1261	3.50135	0.00135
11	1293	3.50295	0.00295
12	1179	2.10295	0.00295
12	1204	2.80135	0.00135
12	1236	2.80295	0.00295
12	1261	3.50135	0.00135
12	1293	3.50295	0.00295
13	1180	2.10295	10
13	1205	2.80135	9
13	1237	2.80295	10
13	1262	3.50135	9
13	1294	3.50295	10
14	1180	2.10295	10
14	1205	2.80135	9
14	1237	2.80295	10
14	1262	3.50135	9
14	1294	3.50295	10
15	1181	2.10295	0.00295
15	1206	2.80135	0.00135
15	1238	2.80295	0.00295
15	1263	3.50135	0.00135
15	1295	3.50295	0.00295
16	1181	2.10295	0.00295
16	1206	2.80135	0.00135
16	1238	2.80295	0.00295
16	1263	3.50135	0.00135
16	1295	3.50295	0.00295
17	1223	2.80145	10
17	1280	3.50145	10
0	1353	4.9	0
1	1354	4.9	0
3	1300	4.20001	10
3	1355	4.9	10
3	1355	4.9	10
3	1357	4.90001	10
4	1342	4.2022	0
4	1355	4.9	1
4	1399	4.9022	0
5	1342	4.2022	0
5	1355	4.9	10
5	1399	4.9022	0
6	1305	4.20068	0
6	1336	4.20144	1
6	1342	4.2022	0
6	1355	4.9	1
6	1356	4.9	2
6	1362	4.90068	0
6	1393	4.90144	1
6	1399	4.9022	0
7	1356	4.9	9
7	1356	4.9	9
8	1305	4.20068	0
8	1356	4.9	1
8	1362	4.90068	0
9	1305	4.20068	0
9	1356	4.9	9
9	1362	4.90068	0
10	1300	4.20001	9
10	1357	4.90001	9
11	1318	4.20135	0.00135
11	1350	4.20295	0.00295
11	1375	4.90135	0.00135
12	1318	4.20135	0.00135
12	1350	4.20295	0.00295
12	1375	4.90135	0.00135
13	1319	4.20135	9
13	1351	4.20295	10
13	1376	4.90135	9
14	1319	4.20135	9
14	1351	4.20295	10
14	1376	4.90135	9
15	1320	4.20135	0.00135
15	1352	4.20295	0.00295
15	1377	4.90135	0.00135
16	1320	4.20135	0.00135
16	1352	4.20295	0.00295
16	1377	4.90135	0.00135
17	1337	4.20145	10
17	1394	4.90145	10
0	1410	5.6	0
0	1467	6.3	0
0	1524	7	0
0	1581	7.7	0
0	1638	8.4	0
0	1695	9.1	0
1	1411	5.6	0
1	1468	6.3	0
1	1525	7	0
1	1582	7.7	0
1	1639	8.4	0
1	1696	9.1	0
3	1412	5.6	10
3	1412	5.6	10
3	1414	5.60001	10
3	1469	6.3	10
3	1469	6.3	10
3	1471	6.30001	10
3	1526	7	10
3	1526	7	10
3	1528	7.00001	10
3	1583	7.7	10
3	1583	7.7	10
3	1585	7.70001	10
3	1640	8.4	10
3	1640	8.4	10
3	1642	8.40001	10
3	1697	9.1	10
3	1697	9.1	10
3	1699	9.10001	10
4	1412	5.6	1
4	1456	5.6022	0
4	1469	6.3	1
4	1513	6.3022	0
4	1526	7	1
4	1570	7.0022	0
4	1583	7.7	1
4	1627	7.7022	0
4	1640	8.4	1
4	1684	8.4022	0
4	1697	9.1	1
5	1412	5.6	10
5	1456	5.6022	0
5	1469	6.3	10
5	1513	6.3022	0
5	1526	7	10
5	1570	7.0022	0
5	1583	7.7	10
5	1627	7.7022	0
5	1640	8.4	10
5	1684	8.4022	0
5	1697	9.1	10
6	1412	5.6	1
6	1413	5.6	2
6	1419	5.60068	0
6	1450	5.60144	1
6	1456	5.6022	0
6	1469	6.3	1
6	1470	6.3	2
6	1476	6.30068	0
6	1507	6.30144	1
6	1513	6.3022	0
6	1526	7	1
6	1527	7	2
6	1533	7.00068	0
6	1564	7.00144	1
6	1570	7.0022	0
6	1583	7.7	1
6	1584	7.7	2
6	1590	7.70068	0
6	1621	7.70144	1
6	1627	7.7022	0
6	1640	8.4	1
6	1641	8.4	2
6	1647	8.40068	0
6	1678	8.40144	1
6	1684	8.4022	0
6	1697	9.1	1
6	1698	9.1	2
7	1413	5.6	9
7	1413	5.6	9
7	1470	6.3	9
7	1470	6.3	9
7	1527	7	9
7	1527	7	9
7	1584	7.7	9
7	1584	7.7	9
7	1641	8.4	9
7	1641	8.4	9
7	1698	9.1	9
7	1698	9.1	9
8	1413	5.6	1
8	1419	5.60068	0
8	1470	6.3	1
8	1476	6.30068	0
8	1527	7	1
8	1533	7.00068	0
8	1584	7.7	1
8	1590	7.70068	0
8	1641	8.4	1
8	1647	8.40068	0
8	1698	9.1	1
9	1413	5.6	9
9	1419	5.60068	0
9	1470	6.3	9
9	1476	6.30068	0
9	1527	7	9
9	1533	7.00068	0
9	1584	7.7	9
9	1590	7.70068	0
9	1641	8.4	9
9	1647	8.40068	0
9	1698	9.1	9
10	1414	5.60001	9
10	1471	6.30001	9
10	1528	7.00001	9
10	1585	7.70001	9
10	1642	8.40001	9
10	1699	9.10001	9
11	1407	4.90295	0.00295
11	1432	5.60135	0.00135
11	1464	5.60295	0.00295
11	1489	6.30135	0.00135
11	1521	6.30295	0.00295
11	1546	7.00135	0.00135
11	1578	7.00295	0.00295
11	1603	7.70135	0.00135
11	1635	7.70295	0.00295
11	1660	8.40135	0.00135
11	1692	8.40295	0.00295
12	1407	4.90295	0.00295
12	1432	5.60135	0.00135
12	1464	5.60295	0.00295
12	1489	6.30135	0.00135
12	1521	6.30295	0.00295
12	1546	7.00135	0.00135
12	1578	7.00295	0.00295
12	1603	7.70135	0.00135
12	1635	7.70295	0.00295
12	1660	8.40135	0.00135
12	1692	8.40295	0.00295
13	1408	4.90295	10
13	1433	5.60135	9
13	1465	5.60295	10
13	1490	6.30135	9
13	1522	6.30295	10
13	1547	7.00135	9
13	1579	7.00295	10
13	1604	7.70135	9
13	1636	7.70295	10
13	1661	8.40135	9
13	1693	8.40295	10
14	1408	4.90295	10
14	1433	5.60135	9
14	1465	5.60295	10
14	1490	6.30135	9
14	1522	6.30295	10
14	1547	7.00135	9
14	1579	7.00295	10
14	1604	7.70135	9
14	1636	7.70295	10
14	1661	8.40135	9
14	1693	8.40295	10
15	1409	4.90295	0.00295
15	1434	5.60135	0.00135
15	1466	5.60295	0.00295
15	1491	6.30135	0.00135
15	1523	6.30295	0.00295
15	1548	7.00135	0.00135
15	1580	7.00295	0.00295
15	1605	7.70135	0.00135
15	1637	7.70295	0.00295
15	1662	8.40135	0.00135
15	1694	8.40295	0.00295
16	1409	4.90295	0.00295
16	1434	5.60135	0.00135
16	1466	5.60295	0.00295
16	1491	6.30135	0.00135
16	1523	6.30295	0.00295
16	1548	7.00135	0.00135
16	1580	7.00295	0.00295
16	1605	7.70135	0.00135
16	1637	7.70295	0.00295
16	1662	8.40135	0.00135
16	1694	8.40295	0.00295
17	1451	5.60145	10
17	1508	6.30145	10
17	1565	7.00145	10
17	1622	7.70145	10
17	1679	8.40145	10
0	1752	9.8	0
0	1809	10.5	0
0	1866	11.2	0
1	1753	9.8	0
1	1810	10.5	0
1	1867	11.2	0
3	1754	9.8	10
3	1754	9.8	10
3	1756	9.80001	10
3	1811	10.5	10
3	1811	10.5	10
3	1813	10.50001	10
3	1868	11.2	10
3	1868	11.2	10
3	1870	11.20001	10
4	1741	9.1022	0
4	1754	9.8	1
4	1798	9.8022	0
4	1811	10.5	1
4	1855	10.5022	0
4	1868	11.2	1
5	1741	9.1022	0
5	1754	9.8	10
5	1798	9.8022	0
5	1811	10.5	10
5	1855	10.5022	0
5	1868	11.2	10
6	1704	9.10068	0
6	1735	9.10144	1
6	1741	9.1022	0
6	1754	9.8	1
6	1755	9.8	2
6	1761	9.80068	0
6	1792	9.80144	1
6	1798	9.8022	0
6	1811	10.5	1
6	1812	10.5	2
6	1818	10.50068	0
6	1849	10.50144	1
6	1855	10.5022	0
6	1868	11.2	1
6	1869	11.2	2
6	1875	11.20068	0
7	1755	9.8	9
7	1755	9.8	9
7	1812	10.5	9
7	1812	10.5	9
7	1869	11.2	9
7	1869	11.2	9
8	1704	9.10068	0
8	1755	9.8	1
8	1761	9.80068	0
8	1812	10.5	1
8	1818	10.50068	0
8	1869	11.2	1
8	1875	11.20068	0
9	1704	9.10068	0
9	1755	9.8	9
9	1761	9.80068	0
9	1812	10.5	9
9	1818	10.50068	0
9	1869	11.2	9
9	1875	11.20068	0
10	1756	9.80001	9
10	1813	10.50001	9
10	1870	11.20001	9
11	1717	9.10135	0.00135
11	1749	9.10295	0.00295
11	1774	9.80135	0.00135
11	1806	9.80295	0.00295
11	1831	10.50135	0.00135
11	1863	10.50295	0.00295
11	1888	11.20135	0.00135
12	1717	9.10135	0.00135
12	1749	9.10295	0.00295
12	1774	9.80135	0.00135
12	1806	9.80295	0.00295
12	1831	10.50135	0.00135
12	1863	10.50295	0.00295
12	1888	11.20135	0.00135
13	1718	9.10135	9
13	1750	9.10295	10
13	1775	9.80135	9
13	1807	9.80295	10
13	1832	10.50135	9
13	1864	10.50295	10
13	1889	11.20135	9
14	1718	9.10135	9
14	1750	9.10295	10
14	1775	9.80135	9
14	1807	9.80295	10
14	1832	10.50135	9
14	1864	10.50295	10
14	1889	11.20135	9
15	1719	9.10135	0.00135
15	1751	9.10295	0.00295
15	1776	9.80135	0.00135
15	1808	9.80295	0.00295
15	1833	10.50135	0.00135
15	1865	10.50295	0.00295
15	1890	11.20135	0.00135
16	1719	9.10135	0.00135
16	1751	9.10295	0.00295
16	1776	9.80135	0.00135
16	1808	9.80295	0.00295
16	1833	10.50135	0.00135
16	1865	10.50295	0.00295
16	1890	11.20135	0.00135
17	1736	9.10145	10
17	1793	9.80145	10
17	1850	10.50145	10
0	1923	11.9	0
0	1980	12.6	0
0	2037	13.3	0
0	2057	14	0
0	2077	14.7	0
0	2097	15.4	0
0	2117	16.1	0
0	2137	16.8	0
1	1924	11.9	0
1	1981	12.6	0
1	2038	13.3	0
1	2058	14	0
1	2078	14.7	0
1	2098	15.4	0
1	2118	16.1	0
1	2138	16.8	0
3	1925	11.9	10
3	1925	11.9	10
3	1927	11.90001	10
3	1982	12.6	10
3	1982	12.6	10
3	1984	12.60001	10
3	2039	13.3	10
3	2039	13.3	10
3	2041	13.30001	10
4	1912	11.2022	0
4	1925	11.9	1
4	1969	11.9022	0
4	1982	12.6	1
4	2026	12.6022	0
4	2039	13.3	1
5	1912	11.2022	0
5	1925	11.9	10
5	1969	11.9022	0
5	1982	12.6	10
5	2026	12.6022	0
5	2039	13.3	10
6	1906	11.20144	1
6	1912	11.2022	0
6	1925	11.9	1
6	1926	11.9	2
6	1932	11.90068	0
6	1963	11.90144	1
6	1969	11.9022	0
6	1982	12.6	1
6	1983	12.6	2
6	1989	12.60068	0
6	2020	12.60144	1
6	2026	12.6022	0
6	2039	13.3	1
6	2040	13.3	2
6	2046	13.30068	0
6	2060	14	1
6	2066	14.00068	0
6	2080	14.7	1
6	2086	14.70068	0
6	2100	15.4	1
6	2106	15.40068	0
6	2120	16.1	1
6	2126	16.10068	0
6	2140	16.8	1
7	1926	11.9	9
7	1926	11.9	9
7	1983	12.6	9
7	1983	12.6	9
7	2040	13.3	9
7	2040	13.3	9
7	2060	14	9
7	2060	14	9
7	2080	14.7	9
7	2080	14.7	9
7	2100	15.4	9
7	2100	15.4	9
7	2120	16.1	9
7	2120	16.1	9
7	2140	16.8	9
7	2140	16.8	9
8	1926	11.9	1
8	1932	11.90068	0
8	1983	12.6	1
8	1989	12.60068	0
8	2040	13.3	1
8	2046	13.30068	0
8	2060	14	1
8	2066	14.00068	0
8	2080	14.7	1
8	2086	14.70068	0
8	2100	15.4	1
8	2106	15.40068	0
8	2120	16.1	1
8	2126	16.10068	0
8	2140	16.8	1
9	1926	11.9	9
9	1932	11.90068	0
9	1983	12.6	9
9	1989	12.60068	0
9	2040	13.3	9
9	2046	13.30068	0
9	2060	14	9
9	2066	14.00068	0
9	2080	14.7	9
9	2086	14.70068	0
9	2100	15.4	9
9	2106	15.40068	0
9	2120	16.1	9
9	2126	16.10068	0
9	2140	16.8	9
10	1927	11.90001	9
10	1984	12.60001	9
10	2041	13.30001	9
10	2061	14.00001	9
10	2081	14.70001	9
10	2101	15.40001	9
10	2121	16.10001	9
10	2141	16.80001	9
11	1920	11.20295	0.00295
11	1945	11.90135	0.00135
11	1977	11.90295	0.00295
11	2002	12.60135	0.00135
11	2034	12.60295	0.00295
11	2054	13.30135	0.00135
11	2074	14.00135	0.00135
11	2094	14.70135	0.00135
11	2114	15.40135	0.00135
11	2134	16.10135	0.00135
12	1920	11.20295	0.00295
12	1945	11.90135	0.00135
12	1977	11.90295	0.00295
12	2002	12.60135	0.00135
12	2034	12.60295	0.00295
12	2054	13.30135	0.00135
12	2074	14.00135	0.00135
12	2094	14.70135	0.00135
12	2114	15.40135	0.00135
12	2134	16.10135	0.00135
13	1921	11.20295	10
13	1946	11.90135	9
13	1978	11.90295	10
13	2003	12.60135	9
13	2035	12.60295	10
13	2055	13.30135	9
13	2075	14.00135	9
13	2095	14.70135	9
13	2115	15.40135	9
13	2135	16.10135	9
14	1921	11.20295	10
14	1946	11.90135	9
14	1978	11.90295	10
14	2003	12.60135	9
14	2035	12.60295	10
14	2055	13.30135	9
14	2075	14.00135	9
14	2095	14.70135	9
14	2115	15.40135	9
14	2135	16.10135	9
15	1922	11.20295	0.00295
15	1947	11.90135	0.00135
15	1979	11.90295	0.00295
15	2004	12.60135	0.00135
15	2036	12.60295	0.00295
15	2056	13.30135	0.00135
15	2076	14.00135	0.00135
15	2096	14.70135	0.00135
15	2116	15.40135	0.00135
15	2136	16.10135	0.00135
16	1922	11.20295	0.00295
16	1947	11.90135	0.00135
16	1979	11.90295	0.00295
16	2004	12.60135	0.00135
16	2036	12.60295	0.00295
16	2056	13.30135	0.00135
16	2076	14.00135	0.00135
16	2096	14.70135	0.00135
16	2116	15.40135	0.00135
16	2136	16.10135	0.00135
17	1907	11.20145	10
17	1964	11.90145	10
17	2021	12.60145	10

